(PID.TID 0000.0001) 
(PID.TID 0000.0001) // ======================================================
(PID.TID 0000.0001) //                      MITgcm UV
(PID.TID 0000.0001) //                      =========
(PID.TID 0000.0001) // ======================================================
(PID.TID 0000.0001) // execution environment starting up...
(PID.TID 0000.0001) 
(PID.TID 0000.0001) // MITgcmUV version:  checkpoint67v
(PID.TID 0000.0001) // Build user:        eavesr
(PID.TID 0000.0001) // Build host:        atmlxint3
(PID.TID 0000.0001) // Build date:        Thu 25 Feb 14:18:02 GMT 2021
(PID.TID 0000.0001) 
(PID.TID 0000.0001) // =======================================================
(PID.TID 0000.0001) // Execution Environment parameter file "eedata"
(PID.TID 0000.0001) // =======================================================
(PID.TID 0000.0001) ># Example "eedata" file
(PID.TID 0000.0001) ># Lines beginning "#" are comments
(PID.TID 0000.0001) >#  nTx      :: No. threads per process in X
(PID.TID 0000.0001) >#  nTy      :: No. threads per process in Y
(PID.TID 0000.0001) ># debugMode :: print debug msg (sequence of S/R calls)
(PID.TID 0000.0001) > &EEPARMS
(PID.TID 0000.0001) > nTx=1,
(PID.TID 0000.0001) > nTy=1,
(PID.TID 0000.0001) > &
(PID.TID 0000.0001) ># Note: Some systems use & as the namelist terminator (as shown here).
(PID.TID 0000.0001) >#       Other systems use a / character.
(PID.TID 0000.0001) 
(PID.TID 0000.0001) // =======================================================
(PID.TID 0000.0001) // Computational Grid Specification ( see files "SIZE.h" )
(PID.TID 0000.0001) //                                  ( and "eedata"       )
(PID.TID 0000.0001) // =======================================================
(PID.TID 0000.0001)      nPx =    1 ; /* No. processes in X */
(PID.TID 0000.0001)      nPy =    1 ; /* No. processes in Y */
(PID.TID 0000.0001)      nSx =    1 ; /* No. tiles in X per process */
(PID.TID 0000.0001)      nSy =    1 ; /* No. tiles in Y per process */
(PID.TID 0000.0001)      sNx =  248 ; /* Tile size in X */
(PID.TID 0000.0001)      sNy =  248 ; /* Tile size in Y */
(PID.TID 0000.0001)      OLx =    2 ; /* Tile overlap distance in X */
(PID.TID 0000.0001)      OLy =    2 ; /* Tile overlap distance in Y */
(PID.TID 0000.0001)      nTx =    1 ; /* No. threads in X per process */
(PID.TID 0000.0001)      nTy =    1 ; /* No. threads in Y per process */
(PID.TID 0000.0001)       Nr =    1 ; /* No. levels in the vertical   */
(PID.TID 0000.0001)       Nx =  248 ; /* Total domain size in X ( = nPx*nSx*sNx ) */
(PID.TID 0000.0001)       Ny =  248 ; /* Total domain size in Y ( = nPy*nSy*sNy ) */
(PID.TID 0000.0001)   nTiles =    1 ; /* Total no. tiles per process ( = nSx*nSy ) */
(PID.TID 0000.0001)   nProcs =    1 ; /* Total no. processes ( = nPx*nPy ) */
(PID.TID 0000.0001) nThreads =    1 ; /* Total no. threads per process ( = nTx*nTy ) */
(PID.TID 0000.0001) usingMPI =    F ; /* Flag used to control whether MPI is in use */
(PID.TID 0000.0001)                   /*  note: To execute a program with MPI calls */
(PID.TID 0000.0001)                   /*  it must be launched appropriately e.g     */
(PID.TID 0000.0001)                   /*  "mpirun -np 64 ......"                    */
(PID.TID 0000.0001) useCoupler=   F ; /* Flag used to control communications with   */
(PID.TID 0000.0001)                   /*  other model components, through a coupler */
(PID.TID 0000.0001) useNest2W_parent =    F ;/* Control 2-W Nesting comm */
(PID.TID 0000.0001) useNest2W_child  =    F ;/* Control 2-W Nesting comm */
(PID.TID 0000.0001) debugMode =    F ; /* print debug msg. (sequence of S/R calls)  */
(PID.TID 0000.0001) printMapIncludesZeros=    F ; /* print zeros in Std.Output maps */
(PID.TID 0000.0001) maxLengthPrt1D=   65 /* maxLength of 1D array printed to StdOut */
(PID.TID 0000.0001) 
(PID.TID 0000.0001) // ======================================================
(PID.TID 0000.0001) // Mapping of tiles to threads
(PID.TID 0000.0001) // ======================================================
(PID.TID 0000.0001) // -o- Thread   1, tiles (   1:   1,   1:   1)
(PID.TID 0000.0001) 
(PID.TID 0000.0001) // ======================================================
(PID.TID 0000.0001) // Tile <-> Tile connectvity table
(PID.TID 0000.0001) // ======================================================
(PID.TID 0000.0001) // Tile number: 000001 (process no. = 000000)
(PID.TID 0000.0001) //        WEST: Tile = 000001, Process = 000000, Comm = put
(PID.TID 0000.0001) //                bi = 000001, bj = 000001
(PID.TID 0000.0001) //        EAST: Tile = 000001, Process = 000000, Comm = put
(PID.TID 0000.0001) //                bi = 000001, bj = 000001
(PID.TID 0000.0001) //       SOUTH: Tile = 000001, Process = 000000, Comm = put
(PID.TID 0000.0001) //                bi = 000001, bj = 000001
(PID.TID 0000.0001) //       NORTH: Tile = 000001, Process = 000000, Comm = put
(PID.TID 0000.0001) //                bi = 000001, bj = 000001
(PID.TID 0000.0001) 
(PID.TID 0000.0001)  INI_PARMS: opening model parameter file "data"
(PID.TID 0000.0001)  OPEN_COPY_DATA_FILE: opening file data
(PID.TID 0000.0001) // =======================================================
(PID.TID 0000.0001) // Parameter file "data"
(PID.TID 0000.0001) // =======================================================
(PID.TID 0000.0001) ># Model parameters
(PID.TID 0000.0001) ># Continuous equation parameters
(PID.TID 0000.0001) > &PARM01
(PID.TID 0000.0001) > viscAh=4.E2,
(PID.TID 0000.0001) > f0=0.7E-4,
(PID.TID 0000.0001) > beta=2.E-11,
(PID.TID 0000.0001) > rhoConst=1027.,
(PID.TID 0000.0001) > gBaro=9.81,
(PID.TID 0000.0001) > rigidLid=.FALSE.,
(PID.TID 0000.0001) > implicitFreeSurface=.TRUE.,
(PID.TID 0000.0001) ># momAdvection=.FALSE.,
(PID.TID 0000.0001) > tempStepping=.FALSE.,
(PID.TID 0000.0001) > saltStepping=.FALSE.,
(PID.TID 0000.0001) > useSingleCpuIO=.TRUE.,
(PID.TID 0000.0001) > hFacMin=0.1,
(PID.TID 0000.0001) > &
(PID.TID 0000.0001) >
(PID.TID 0000.0001) ># Elliptic solver parameters
(PID.TID 0000.0001) > &PARM02
(PID.TID 0000.0001) > cg2dTargetResidual=1.E-7,
(PID.TID 0000.0001) > cg2dMaxIters=1000,
(PID.TID 0000.0001) > &
(PID.TID 0000.0001) >
(PID.TID 0000.0001) ># Time stepping parameters
(PID.TID 0000.0001) > &PARM03
(PID.TID 0000.0001) > nIter0=0,
(PID.TID 0000.0001) > nTimeSteps=100,
(PID.TID 0000.0001) > deltaT=5400.0,
(PID.TID 0000.0001) > pChkptFreq=31104000.0,
(PID.TID 0000.0001) > chkptFreq=25920000.0,
(PID.TID 0000.0001) > dumpFreq=864000.0,
(PID.TID 0000.0001) > monitorFreq=86400.,
(PID.TID 0000.0001) > monitorSelect=2,
(PID.TID 0000.0001) >#-for longer run (3.0 yr):
(PID.TID 0000.0001) ># nTimeSteps=77760,
(PID.TID 0000.0001) ># monitorFreq=864000.,
(PID.TID 0000.0001) > &
(PID.TID 0000.0001) >
(PID.TID 0000.0001) ># Gridding parameters
(PID.TID 0000.0001) > &PARM04
(PID.TID 0000.0001) > usingCartesianGrid=.TRUE.,
(PID.TID 0000.0001) > delX=248*5.E3,
(PID.TID 0000.0001) > delY=248*5.E3,
(PID.TID 0000.0001) > xgOrigin=-5.E3,
(PID.TID 0000.0001) > ygOrigin=-5.E3,
(PID.TID 0000.0001) > delR=5000.,
(PID.TID 0000.0001) > &
(PID.TID 0000.0001) >
(PID.TID 0000.0001) ># Input datasets
(PID.TID 0000.0001) > &PARM05
(PID.TID 0000.0001) > bathyFile='bathy.bin'
(PID.TID 0000.0001) > zonalWindFile='wind.bin',
(PID.TID 0000.0001) >#zonalWindFile='windx_siny.bin',
(PID.TID 0000.0001) > meridWindFile=,
(PID.TID 0000.0001) > &
(PID.TID 0000.0001) 
(PID.TID 0000.0001)  INI_PARMS ; starts to read PARM01
(PID.TID 0000.0001)  INI_PARMS ; read PARM01 : OK
(PID.TID 0000.0001)  INI_PARMS ; starts to read PARM02
(PID.TID 0000.0001)  INI_PARMS ; read PARM02 : OK
(PID.TID 0000.0001)  INI_PARMS ; starts to read PARM03
(PID.TID 0000.0001)  INI_PARMS ; read PARM03 : OK
(PID.TID 0000.0001)  INI_PARMS ; starts to read PARM04
(PID.TID 0000.0001)  INI_PARMS ; read PARM04 : OK
(PID.TID 0000.0001)  INI_PARMS ; starts to read PARM05
(PID.TID 0000.0001)  INI_PARMS ; read PARM05 : OK
(PID.TID 0000.0001)  INI_PARMS: finished reading file "data"
(PID.TID 0000.0001)  PACKAGES_BOOT: opening data.pkg
(PID.TID 0000.0001)  OPEN_COPY_DATA_FILE: opening file data.pkg
(PID.TID 0000.0001) // =======================================================
(PID.TID 0000.0001) // Parameter file "data.pkg"
(PID.TID 0000.0001) // =======================================================
(PID.TID 0000.0001) ># Packages
(PID.TID 0000.0001) > &PACKAGES
(PID.TID 0000.0001) > &
(PID.TID 0000.0001) 
(PID.TID 0000.0001)  PACKAGES_BOOT: finished reading data.pkg
(PID.TID 0000.0001)  PACKAGES_BOOT: On/Off package Summary
 --------  pkgs with a standard "usePKG" On/Off switch in "data.pkg":  --------
 -------- pkgs without standard "usePKG" On/Off switch in "data.pkg":  --------
 pkg/generic_advdiff      compiled but not used ( useGAD                   = F )
 pkg/mom_common           compiled   and   used ( momStepping              = T )
 pkg/mom_vecinv           compiled but not used ( +vectorInvariantMomentum = F )
 pkg/mom_fluxform         compiled   and   used ( & not vectorInvariantMom = T )
 pkg/monitor              compiled   and   used ( monitorFreq > 0.         = T )
 pkg/debug                compiled but not used ( debugMode                = F )
 pkg/rw                   compiled   and   used
 pkg/mdsio                compiled   and   used
(PID.TID 0000.0001)  PACKAGES_BOOT: End of package Summary
(PID.TID 0000.0001) 
(PID.TID 0000.0001) SET_PARMS: done
(PID.TID 0000.0001) Enter INI_VERTICAL_GRID: setInterFDr=    T ; setCenterDr=    F
(PID.TID 0000.0001) %MON XC_max                       =   1.2325000000000E+06
(PID.TID 0000.0001) %MON XC_min                       =  -2.5000000000000E+03
(PID.TID 0000.0001) %MON XC_mean                      =   6.1500000000000E+05
(PID.TID 0000.0001) %MON XC_sd                        =   3.5795425685414E+05
(PID.TID 0000.0001) %MON XG_max                       =   1.2300000000000E+06
(PID.TID 0000.0001) %MON XG_min                       =  -5.0000000000000E+03
(PID.TID 0000.0001) %MON XG_mean                      =   6.1250000000000E+05
(PID.TID 0000.0001) %MON XG_sd                        =   3.5795425685414E+05
(PID.TID 0000.0001) %MON DXC_max                      =   5.0000000000000E+03
(PID.TID 0000.0001) %MON DXC_min                      =   5.0000000000000E+03
(PID.TID 0000.0001) %MON DXC_mean                     =   5.0000000000000E+03
(PID.TID 0000.0001) %MON DXC_sd                       =   9.0949470177293E-13
(PID.TID 0000.0001) %MON DXF_max                      =   5.0000000000000E+03
(PID.TID 0000.0001) %MON DXF_min                      =   5.0000000000000E+03
(PID.TID 0000.0001) %MON DXF_mean                     =   5.0000000000000E+03
(PID.TID 0000.0001) %MON DXF_sd                       =   9.0949470177293E-13
(PID.TID 0000.0001) %MON DXG_max                      =   5.0000000000000E+03
(PID.TID 0000.0001) %MON DXG_min                      =   5.0000000000000E+03
(PID.TID 0000.0001) %MON DXG_mean                     =   5.0000000000000E+03
(PID.TID 0000.0001) %MON DXG_sd                       =   9.0949470177293E-13
(PID.TID 0000.0001) %MON DXV_max                      =   5.0000000000000E+03
(PID.TID 0000.0001) %MON DXV_min                      =   5.0000000000000E+03
(PID.TID 0000.0001) %MON DXV_mean                     =   5.0000000000000E+03
(PID.TID 0000.0001) %MON DXV_sd                       =   9.0949470177293E-13
(PID.TID 0000.0001) %MON YC_max                       =   1.2325000000000E+06
(PID.TID 0000.0001) %MON YC_min                       =  -2.5000000000000E+03
(PID.TID 0000.0001) %MON YC_mean                      =   6.1500000000000E+05
(PID.TID 0000.0001) %MON YC_sd                        =   3.5795425685414E+05
(PID.TID 0000.0001) %MON YG_max                       =   1.2300000000000E+06
(PID.TID 0000.0001) %MON YG_min                       =  -5.0000000000000E+03
(PID.TID 0000.0001) %MON YG_mean                      =   6.1250000000000E+05
(PID.TID 0000.0001) %MON YG_sd                        =   3.5795425685414E+05
(PID.TID 0000.0001) %MON DYC_max                      =   5.0000000000000E+03
(PID.TID 0000.0001) %MON DYC_min                      =   5.0000000000000E+03
(PID.TID 0000.0001) %MON DYC_mean                     =   5.0000000000000E+03
(PID.TID 0000.0001) %MON DYC_sd                       =   9.0949470177293E-13
(PID.TID 0000.0001) %MON DYF_max                      =   5.0000000000000E+03
(PID.TID 0000.0001) %MON DYF_min                      =   5.0000000000000E+03
(PID.TID 0000.0001) %MON DYF_mean                     =   5.0000000000000E+03
(PID.TID 0000.0001) %MON DYF_sd                       =   9.0949470177293E-13
(PID.TID 0000.0001) %MON DYG_max                      =   5.0000000000000E+03
(PID.TID 0000.0001) %MON DYG_min                      =   5.0000000000000E+03
(PID.TID 0000.0001) %MON DYG_mean                     =   5.0000000000000E+03
(PID.TID 0000.0001) %MON DYG_sd                       =   9.0949470177293E-13
(PID.TID 0000.0001) %MON DYU_max                      =   5.0000000000000E+03
(PID.TID 0000.0001) %MON DYU_min                      =   5.0000000000000E+03
(PID.TID 0000.0001) %MON DYU_mean                     =   5.0000000000000E+03
(PID.TID 0000.0001) %MON DYU_sd                       =   9.0949470177293E-13
(PID.TID 0000.0001) %MON RA_max                       =   2.5000000000000E+07
(PID.TID 0000.0001) %MON RA_min                       =   2.5000000000000E+07
(PID.TID 0000.0001) %MON RA_mean                      =   2.5000000000000E+07
(PID.TID 0000.0001) %MON RA_sd                        =   3.7252902984619E-09
(PID.TID 0000.0001) %MON RAW_max                      =   2.5000000000000E+07
(PID.TID 0000.0001) %MON RAW_min                      =   2.5000000000000E+07
(PID.TID 0000.0001) %MON RAW_mean                     =   2.5000000000000E+07
(PID.TID 0000.0001) %MON RAW_sd                       =   3.7252902984619E-09
(PID.TID 0000.0001) %MON RAS_max                      =   2.5000000000000E+07
(PID.TID 0000.0001) %MON RAS_min                      =   2.5000000000000E+07
(PID.TID 0000.0001) %MON RAS_mean                     =   2.5000000000000E+07
(PID.TID 0000.0001) %MON RAS_sd                       =   3.7252902984619E-09
(PID.TID 0000.0001) %MON RAZ_max                      =   2.5000000000000E+07
(PID.TID 0000.0001) %MON RAZ_min                      =   2.5000000000000E+07
(PID.TID 0000.0001) %MON RAZ_mean                     =   2.5000000000000E+07
(PID.TID 0000.0001) %MON RAZ_sd                       =   3.7252902984619E-09
(PID.TID 0000.0001) %MON AngleCS_max                  =   1.0000000000000E+00
(PID.TID 0000.0001) %MON AngleCS_min                  =   1.0000000000000E+00
(PID.TID 0000.0001) %MON AngleCS_mean                 =   1.0000000000000E+00
(PID.TID 0000.0001) %MON AngleCS_sd                   =   0.0000000000000E+00
(PID.TID 0000.0001) %MON AngleSN_max                  =   0.0000000000000E+00
(PID.TID 0000.0001) %MON AngleSN_min                  =   0.0000000000000E+00
(PID.TID 0000.0001) %MON AngleSN_mean                 =   0.0000000000000E+00
(PID.TID 0000.0001) %MON AngleSN_sd                   =   0.0000000000000E+00
(PID.TID 0000.0001)  MDS_READ_FIELD: opening global file: bathy.bin
(PID.TID 0000.0001) // =======================================================
(PID.TID 0000.0001) // Field Model R_low (ini_masks_etc)
(PID.TID 0000.0001) // CMIN =         -4.999819335937500E+03
(PID.TID 0000.0001) // CMAX =         -4.500020019531250E+03
(PID.TID 0000.0001) // CINT =          1.851108579282407E+01
(PID.TID 0000.0001) // SYMBOLS (CMIN->CMAX): -abcdefghijklmnopqrstuvwxyz+
(PID.TID 0000.0001) //                  0.0: .
(PID.TID 0000.0001) // RANGE I (Lo:Hi:Step):(    -1:   250:     1)
(PID.TID 0000.0001) // RANGE J (Lo:Hi:Step):(   250:    -1:    -1)
(PID.TID 0000.0001) // RANGE K (Lo:Hi:Step):(   1:   1:   1)
(PID.TID 0000.0001) // =======================================================
(PID.TID 0000.0001) K =   1
(PID.TID 0000.0001) //                I=8       I=18      I=28      I=38      I=48      I=58      I=68      I=78      I=88      I=98      I=108     I=118     I=128     I=138     I=148     I=158     I=168     I=178     I=188     I=198     I=208     I=218     I=228     I=238     I=248
(PID.TID 0000.0001) // |--J--|101234567|901234567|901234567|901234567|901234567|901234567|901234567|901234567|901234567|901234567|901234567|901234567|901234567|901234567|901234567|901234567|901234567|901234567|901234567|901234567|901234567|901234567|901234567|901234567|901234567|90
(PID.TID 0000.0001) //    250 -..------------------------------------------------------------------------------------------------------------------aaaaaaaaaaaaaaaaaa------------------------------------------------------------------------------------------------------------------..-
(PID.TID 0000.0001) //    249 ............................................................................................................................................................................................................................................................
(PID.TID 0000.0001) //    248 ............................................................................................................................................................................................................................................................
(PID.TID 0000.0001) //    247 -..------------------------------------------------------------------------------------------------------------------aaaaaaaaaaaaaaaaaa------------------------------------------------------------------------------------------------------------------..-
(PID.TID 0000.0001) //    246 -..-------------------------------------------------aaaaaaaaaaaaaaaaaaaaaaaaaaaaaaaaaaaaaaaaaaaaaaaaaaaaaaaaaaaaaaaaaaaaaaaaaaaaaaaaaaaaaaaaaaaaaaaaaaaaaaaaaaaaaaaaaaaaaaaaaaaaaaaaaaaaaaaaaaaaaaaaaaaa-------------------------------------------------..-
(PID.TID 0000.0001) //    245 -..----------------------------------aaaaaaaaaaaaaaaaaaaaaaaaaaaaaaaaaaaaaaaaaaaaaaaaaaaaaaaaaaaaaaaaaaaaaaaaaaaaaaaaaaaaaaaaaaaaaaaaaaaaaaaaaaaaaaaaaaaaaaaaaaaaaaaaaaaaaaaaaaaaaaaaaaaaaaaaaaaaaaaaaaaaaaaaaaaaaaaaaa----------------------------------..-
(PID.TID 0000.0001) //    244 -..--------------------------aaaaaaaaaaaaaaaaaaaaaaaaaaaaaaaaaaaaaaaaaaaaaaaaaaaaaaaaaaaaaaaaaaaaaaaaaaaaaaaaaabbbbbbbbbbbbbbbbbbbbbbbbbbbbbbaaaaaaaaaaaaaaaaaaaaaaaaaaaaaaaaaaaaaaaaaaaaaaaaaaaaaaaaaaaaaaaaaaaaaaaaaaaaaaaaaa--------------------------..-
(PID.TID 0000.0001) //    243 -..---------------------aaaaaaaaaaaaaaaaaaaaaaaaaaaaaaaaaaaaaaaaaaaaaaaaaaaabbbbbbbbbbbbbbbbbbbbbbbbbbbbbbbbbbbbbbbbbbbbbbbbbbbbbbbbbbbbbbbbbbbbbbbbbbbbbbbbbbbbbbbbbbbbbbbbbbbbaaaaaaaaaaaaaaaaaaaaaaaaaaaaaaaaaaaaaaaaaaaaaaaaaaaa---------------------..-
(PID.TID 0000.0001) //    242 -..-----------------aaaaaaaaaaaaaaaaaaaaaaaaaaaaaaaaaaaaaaaaabbbbbbbbbbbbbbbbbbbbbbbbbbbbbbbbbbbbbbbbbbbbbbbbbbbbbbbbbbbbbbbbbbbbbbbbbbbbbbbbbbbbbbbbbbbbbbbbbbbbbbbbbbbbbbbbbbbbbbbbbbbbbbbbbbaaaaaaaaaaaaaaaaaaaaaaaaaaaaaaaaaaaaaaaaa-----------------..-
(PID.TID 0000.0001) //    241 -..---------------aaaaaaaaaaaaaaaaaaaaaaaaaaaaaaaaaabbbbbbbbbbbbbbbbbbbbbbbbbbbbbbbbbbbbbbbbbbbbbbbbbbbbbbbbbbccccccccccccccccccccccccccccccccbbbbbbbbbbbbbbbbbbbbbbbbbbbbbbbbbbbbbbbbbbbbbbbbbbbbbbbbbbaaaaaaaaaaaaaaaaaaaaaaaaaaaaaaaaaa---------------..-
(PID.TID 0000.0001) //    240 -..-------------aaaaaaaaaaaaaaaaaaaaaaaaaaaaabbbbbbbbbbbbbbbbbbbbbbbbbbbbbbbbbbbbbbbccccccccccccccccccccccccccccccccccccccccccccccccccccccccccccccccccccccccccccccccccccbbbbbbbbbbbbbbbbbbbbbbbbbbbbbbbbbbbbbbbaaaaaaaaaaaaaaaaaaaaaaaaaaaaa-------------..-
(PID.TID 0000.0001) //    239 -..-----------aaaaaaaaaaaaaaaaaaaaaaaaaabbbbbbbbbbbbbbbbbbbbbbbbbbbbbbbbccccccccccccccccccccccccccccccccccccccccccccccccccccccccccccccccccccccccccccccccccccccccccccccccccccccccccccbbbbbbbbbbbbbbbbbbbbbbbbbbbbbbbbaaaaaaaaaaaaaaaaaaaaaaaaaa-----------..-
(PID.TID 0000.0001) //    238 -..----------aaaaaaaaaaaaaaaaaaaaaaabbbbbbbbbbbbbbbbbbbbbbbbbbbcccccccccccccccccccccccccccccccccccccccccccccccddddddddddddddddddddddddddddddddcccccccccccccccccccccccccccccccccccccccccccccccbbbbbbbbbbbbbbbbbbbbbbbbbbbaaaaaaaaaaaaaaaaaaaaaaa----------..-
(PID.TID 0000.0001) //    237 -..---------aaaaaaaaaaaaaaaaaaaaabbbbbbbbbbbbbbbbbbbbbbbbcccccccccccccccccccccccccccccccccddddddddddddddddddddddddddddddddddddddddddddddddddddddddddddddddddddddddcccccccccccccccccccccccccccccccccbbbbbbbbbbbbbbbbbbbbbbbbaaaaaaaaaaaaaaaaaaaaa---------..-
(PID.TID 0000.0001) //    236 -..--------aaaaaaaaaaaaaaaaaaaabbbbbbbbbbbbbbbbbbbbbccccccccccccccccccccccccccddddddddddddddddddddddddddddddddddddddddddddddddddddddddddddddddddddddddddddddddddddddddddddddddccccccccccccccccccccccccccbbbbbbbbbbbbbbbbbbbbbaaaaaaaaaaaaaaaaaaaa--------..-
(PID.TID 0000.0001) //    235 -..--------aaaaaaaaaaaaaaaaabbbbbbbbbbbbbbbbbbbbcccccccccccccccccccccccddddddddddddddddddddddddddddddddddddddddeeeeeeeeeeeeeeeeeeeeeeeeeeeeeeddddddddddddddddddddddddddddddddddddddddcccccccccccccccccccccccbbbbbbbbbbbbbbbbbbbbaaaaaaaaaaaaaaaaa--------..-
(PID.TID 0000.0001) //    234 -..-------aaaaaaaaaaaaaaaaabbbbbbbbbbbbbbbbbccccccccccccccccccccdddddddddddddddddddddddddddddeeeeeeeeeeeeeeeeeeeeeeeeeeeeeeeeeeeeeeeeeeeeeeeeeeeeeeeeeeeeeeeeeedddddddddddddddddddddddddddddccccccccccccccccccccbbbbbbbbbbbbbbbbbaaaaaaaaaaaaaaaaa-------..-
(PID.TID 0000.0001) //    233 -..-------aaaaaaaaaaaaaaabbbbbbbbbbbbbbbbcccccccccccccccccccdddddddddddddddddddddddeeeeeeeeeeeeeeeeeeeeeeeeeeeeeeeeeeeeeeeeeeeeeeeeeeeeeeeeeeeeeeeeeeeeeeeeeeeeeeeeeeeeeedddddddddddddddddddddddcccccccccccccccccccbbbbbbbbbbbbbbbbaaaaaaaaaaaaaaa-------..-
(PID.TID 0000.0001) //    232 -..------aaaaaaaaaaaaaaabbbbbbbbbbbbbbbccccccccccccccccdddddddddddddddddddddeeeeeeeeeeeeeeeeeeeeeeeeeeeeeeeeeeeffffffffffffffffffffffffffffffeeeeeeeeeeeeeeeeeeeeeeeeeeeeeeeeeeedddddddddddddddddddddccccccccccccccccbbbbbbbbbbbbbbbaaaaaaaaaaaaaaa------..-
(PID.TID 0000.0001) //    231 -..------aaaaaaaaaaaaabbbbbbbbbbbbbbccccccccccccccccddddddddddddddddddeeeeeeeeeeeeeeeeeeeeeeeeeeffffffffffffffffffffffffffffffffffffffffffffffffffffffffffffeeeeeeeeeeeeeeeeeeeeeeeeeeddddddddddddddddddccccccccccccccccbbbbbbbbbbbbbbaaaaaaaaaaaaa------..-
(PID.TID 0000.0001) //    230 -..-----aaaaaaaaaaaaabbbbbbbbbbbbbcccccccccccccccddddddddddddddddeeeeeeeeeeeeeeeeeeeeeeffffffffffffffffffffffffffffffffffffffffffffffffffffffffffffffffffffffffffffffeeeeeeeeeeeeeeeeeeeeeeddddddddddddddddcccccccccccccccbbbbbbbbbbbbbaaaaaaaaaaaaa-----..-
(PID.TID 0000.0001) //    229 -..-----aaaaaaaaaaaabbbbbbbbbbbbbcccccccccccccdddddddddddddddeeeeeeeeeeeeeeeeeeefffffffffffffffffffffffffffffffffggggggggggggggggggggggggggfffffffffffffffffffffffffffffffffeeeeeeeeeeeeeeeeeeedddddddddddddddcccccccccccccbbbbbbbbbbbbbaaaaaaaaaaaa-----..-
(PID.TID 0000.0001) //    228 -..-----aaaaaaaaaaabbbbbbbbbbbbcccccccccccccddddddddddddddeeeeeeeeeeeeeeeeffffffffffffffffffffffffggggggggggggggggggggggggggggggggggggggggggggggggggggggggffffffffffffffffffffffffeeeeeeeeeeeeeeeeddddddddddddddcccccccccccccbbbbbbbbbbbbaaaaaaaaaaa-----..-
(PID.TID 0000.0001) //    227 -..-----aaaaaaaaaaabbbbbbbbbbbccccccccccccdddddddddddddeeeeeeeeeeeeeeeffffffffffffffffffffggggggggggggggggggggggggggggggggggggggggggggggggggggggggggggggggggggggggffffffffffffffffffffeeeeeeeeeeeeeeedddddddddddddccccccccccccbbbbbbbbbbbaaaaaaaaaaa-----..-
(PID.TID 0000.0001) //    226 -..----aaaaaaaaaaabbbbbbbbbbbcccccccccccddddddddddddeeeeeeeeeeeeeefffffffffffffffffggggggggggggggggggggggggggggggghhhhhhhhhhhhhhhhhhhhhhhhgggggggggggggggggggggggggggggggfffffffffffffffffeeeeeeeeeeeeeeddddddddddddcccccccccccbbbbbbbbbbbaaaaaaaaaaa----..-
(PID.TID 0000.0001) //    225 -..----aaaaaaaaaabbbbbbbbbbcccccccccccddddddddddddeeeeeeeeeeeeefffffffffffffffgggggggggggggggggggggghhhhhhhhhhhhhhhhhhhhhhhhhhhhhhhhhhhhhhhhhhhhhhhhhhhhggggggggggggggggggggggfffffffffffffffeeeeeeeeeeeeeddddddddddddcccccccccccbbbbbbbbbbaaaaaaaaaa----..-
(PID.TID 0000.0001) //    224 -..----aaaaaaaaaabbbbbbbbbcccccccccccdddddddddddeeeeeeeeeeeeffffffffffffffgggggggggggggggggghhhhhhhhhhhhhhhhhhhhhhhhhhhhhhhhhhhhhhhhhhhhhhhhhhhhhhhhhhhhhhhhhhhhggggggggggggggggggffffffffffffffeeeeeeeeeeeedddddddddddcccccccccccbbbbbbbbbaaaaaaaaaa----..-
(PID.TID 0000.0001) //    223 -..----aaaaaaaaabbbbbbbbbccccccccccdddddddddddeeeeeeeeeeefffffffffffffgggggggggggggggghhhhhhhhhhhhhhhhhhhhhhhhhhhhhhiiiiiiiiiiiiiiiiiiiihhhhhhhhhhhhhhhhhhhhhhhhhhhhhhggggggggggggggggfffffffffffffeeeeeeeeeeedddddddddddccccccccccbbbbbbbbbaaaaaaaaa----..-
(PID.TID 0000.0001) //    222 -..----aaaaaaaabbbbbbbbbbcccccccccddddddddddeeeeeeeeeeeffffffffffffgggggggggggggghhhhhhhhhhhhhhhhhhhhhhiiiiiiiiiiiiiiiiiiiiiiiiiiiiiiiiiiiiiiiiiiiiiihhhhhhhhhhhhhhhhhhhhhhggggggggggggggffffffffffffeeeeeeeeeeeddddddddddcccccccccbbbbbbbbbbaaaaaaaa----..-
(PID.TID 0000.0001) //    221 -..---aaaaaaaaabbbbbbbbbcccccccccdddddddddeeeeeeeeeeefffffffffffggggggggggggghhhhhhhhhhhhhhhhhhiiiiiiiiiiiiiiiiiiiiiiiiiiiiiiiiiiiiiiiiiiiiiiiiiiiiiiiiiiiiiihhhhhhhhhhhhhhhhhhgggggggggggggfffffffffffeeeeeeeeeeedddddddddcccccccccbbbbbbbbbaaaaaaaaa---..-
(PID.TID 0000.0001) //    220 -..---aaaaaaaaabbbbbbbbcccccccccdddddddddeeeeeeeeeeffffffffffggggggggggggghhhhhhhhhhhhhhhiiiiiiiiiiiiiiiiiiiiiiiiiiiiiiijjjjjjjjjjjjiiiiiiiiiiiiiiiiiiiiiiiiiiiiiiihhhhhhhhhhhhhhhgggggggggggggffffffffffeeeeeeeeeedddddddddcccccccccbbbbbbbbaaaaaaaaa---..-
(PID.TID 0000.0001) //    219 -..---aaaaaaaabbbbbbbbcccccccccddddddddeeeeeeeeeeffffffffffggggggggggghhhhhhhhhhhhhhiiiiiiiiiiiiiiiiiiiiijjjjjjjjjjjjjjjjjjjjjjjjjjjjjjjjjjjjjjjjjjiiiiiiiiiiiiiiiiiiiiihhhhhhhhhhhhhhgggggggggggffffffffffeeeeeeeeeeddddddddcccccccccbbbbbbbbaaaaaaaa---..-
(PID.TID 0000.0001) //    218 -..---aaaaaaaabbbbbbbbccccccccddddddddeeeeeeeeeffffffffffggggggggggghhhhhhhhhhhhiiiiiiiiiiiiiiiiijjjjjjjjjjjjjjjjjjjjjjjjjjjjjjjjjjjjjjjjjjjjjjjjjjjjjjjjjjiiiiiiiiiiiiiiiiihhhhhhhhhhhhgggggggggggffffffffffeeeeeeeeeddddddddccccccccbbbbbbbbaaaaaaaa---..-
(PID.TID 0000.0001) //    217 -..---aaaaaaabbbbbbbbccccccccddddddddeeeeeeeeefffffffffgggggggggghhhhhhhhhhhhiiiiiiiiiiiiiiijjjjjjjjjjjjjjjjjjjjjjjjjjjjjjjjjjjjjjjjjjjjjjjjjjjjjjjjjjjjjjjjjjjjiiiiiiiiiiiiiiihhhhhhhhhhhhggggggggggfffffffffeeeeeeeeeddddddddccccccccbbbbbbbbaaaaaaa---..-
(PID.TID 0000.0001) //    216 -..---aaaaaaabbbbbbbccccccccddddddddeeeeeeeefffffffffgggggggggghhhhhhhhhhhiiiiiiiiiiiiijjjjjjjjjjjjjjjjjjjjkkkkkkkkkkkkkkkkkkkkkkkkkkkkkkkkkkkkkkjjjjjjjjjjjjjjjjjjjjiiiiiiiiiiiiihhhhhhhhhhhggggggggggfffffffffeeeeeeeeddddddddccccccccbbbbbbbaaaaaaa---..-
(PID.TID 0000.0001) //    215 -..---aaaaaaabbbbbbbcccccccddddddddeeeeeeeeffffffffgggggggggghhhhhhhhhhiiiiiiiiiiiijjjjjjjjjjjjjjjjjkkkkkkkkkkkkkkkkkkkkkkkkkkkkkkkkkkkkkkkkkkkkkkkkkkkkjjjjjjjjjjjjjjjjjiiiiiiiiiiiihhhhhhhhhhggggggggggffffffffeeeeeeeeddddddddcccccccbbbbbbbaaaaaaa---..-
(PID.TID 0000.0001) //    214 -..---aaaaaabbbbbbbccccccccdddddddeeeeeeeeffffffffggggggggghhhhhhhhhiiiiiiiiiiiijjjjjjjjjjjjjjkkkkkkkkkkkkkkkkkkkkkkkkkkkkkkkkkkkkkkkkkkkkkkkkkkkkkkkkkkkkkkkkjjjjjjjjjjjjjjiiiiiiiiiiiihhhhhhhhhgggggggggffffffffeeeeeeeedddddddccccccccbbbbbbbaaaaaa---..-
(PID.TID 0000.0001) //    213 -..--aaaaaaabbbbbbbcccccccdddddddeeeeeeeefffffffggggggggghhhhhhhhhiiiiiiiiiiijjjjjjjjjjjjjkkkkkkkkkkkkkkkkkkkkllllllllllllllllllllllllllllllllkkkkkkkkkkkkkkkkkkkkjjjjjjjjjjjjjiiiiiiiiiiihhhhhhhhhgggggggggfffffffeeeeeeeedddddddcccccccbbbbbbbaaaaaaa--..-
(PID.TID 0000.0001) //    212 -..--aaaaaaabbbbbbbccccccdddddddeeeeeeeffffffffgggggggghhhhhhhhhiiiiiiiiiijjjjjjjjjjjjkkkkkkkkkkkkkkkkllllllllllllllllllllllllllllllllllllllllllllllllkkkkkkkkkkkkkkkkjjjjjjjjjjjjiiiiiiiiiihhhhhhhhhggggggggffffffffeeeeeeedddddddccccccbbbbbbbaaaaaaa--..-
(PID.TID 0000.0001) //    211 -..--aaaaaaabbbbbbcccccccddddddeeeeeeeffffffffgggggggghhhhhhhhiiiiiiiiijjjjjjjjjjjkkkkkkkkkkkkkkkllllllllllllllllllllllllllllllllllllllllllllllllllllllllllkkkkkkkkkkkkkkkjjjjjjjjjjjiiiiiiiiihhhhhhhhggggggggffffffffeeeeeeeddddddcccccccbbbbbbaaaaaaa--..-
(PID.TID 0000.0001) //    210 -..--aaaaaabbbbbbbccccccdddddddeeeeeeefffffffggggggghhhhhhhhiiiiiiiiijjjjjjjjjjkkkkkkkkkkkkkllllllllllllllllllllllmmmmmmmmmmmmmmmmmmmmmmmmllllllllllllllllllllllkkkkkkkkkkkkkjjjjjjjjjjiiiiiiiiihhhhhhhhgggggggfffffffeeeeeeedddddddccccccbbbbbbbaaaaaa--..-
(PID.TID 0000.0001) //    209 -..--aaaaaabbbbbbcccccccddddddeeeeeeefffffffggggggghhhhhhhhiiiiiiiijjjjjjjjjjkkkkkkkkkkklllllllllllllllllmmmmmmmmmmmmmmmmmmmmmmmmmmmmmmmmmmmmmmmmmmlllllllllllllllllkkkkkkkkkkkjjjjjjjjjjiiiiiiiihhhhhhhhgggggggfffffffeeeeeeeddddddcccccccbbbbbbaaaaaa--..-
(PID.TID 0000.0001) //    208 -..--aaaaaabbbbbbccccccddddddeeeeeeefffffffggggggghhhhhhhiiiiiiiijjjjjjjjjkkkkkkkkkkkllllllllllllllmmmmmmmmmmmmmmmmmmmmmmmmmmmmmmmmmmmmmmmmmmmmmmmmmmmmmmllllllllllllllkkkkkkkkkkkjjjjjjjjjiiiiiiiihhhhhhhgggggggfffffffeeeeeeeddddddccccccbbbbbbaaaaaa--..-
(PID.TID 0000.0001) //    207 -..--aaaaaabbbbbbccccccddddddeeeeeefffffffgggggghhhhhhhhiiiiiiijjjjjjjjjkkkkkkkkkklllllllllllllmmmmmmmmmmmmmmmmmmmmmmmmmnnnnnnnnnnnnmmmmmmmmmmmmmmmmmmmmmmmmmlllllllllllllkkkkkkkkkkjjjjjjjjjiiiiiiihhhhhhhhggggggfffffffeeeeeeddddddccccccbbbbbbaaaaaa--..-
(PID.TID 0000.0001) //    206 -..--aaaaaabbbbbccccccddddddeeeeeefffffffgggggghhhhhhhiiiiiiiijjjjjjjjkkkkkkkkkllllllllllllmmmmmmmmmmmmmmmmmnnnnnnnnnnnnnnnnnnnnnnnnnnnnnnnnnnnnmmmmmmmmmmmmmmmmmllllllllllllkkkkkkkkkjjjjjjjjiiiiiiiihhhhhhhggggggfffffffeeeeeeddddddccccccbbbbbaaaaaa--..-
(PID.TID 0000.0001) //    205 -..--aaaaabbbbbbccccccddddddeeeeeeffffffgggggghhhhhhhiiiiiiijjjjjjjjkkkkkkkkklllllllllllmmmmmmmmmmmmmmnnnnnnnnnnnnnnnnnnnnnnnnnnnnnnnnnnnnnnnnnnnnnnnnmmmmmmmmmmmmmmlllllllllllkkkkkkkkkjjjjjjjjiiiiiiihhhhhhhggggggffffffeeeeeeddddddccccccbbbbbbaaaaa--..-
(PID.TID 0000.0001) //    204 -..--aaaaabbbbbbcccccddddddeeeeeeffffffgggggghhhhhhhiiiiiiijjjjjjjkkkkkkkkkllllllllllmmmmmmmmmmmmmnnnnnnnnnnnnnnnnnnnnnnnnnnnnnnnnnnnnnnnnnnnnnnnnnnnnnnnnmmmmmmmmmmmmmllllllllllkkkkkkkkkjjjjjjjiiiiiiihhhhhhhggggggffffffeeeeeeddddddcccccbbbbbbaaaaa--..-
(PID.TID 0000.0001) //    203 -..--aaaaabbbbbbcccccddddddeeeeeffffffgggggghhhhhhhiiiiiijjjjjjjjkkkkkkkklllllllllmmmmmmmmmmmmnnnnnnnnnnnnnnnnnnnoooooooooooooooooooooooooonnnnnnnnnnnnnnnnnnnmmmmmmmmmmmmlllllllllkkkkkkkkjjjjjjjjiiiiiihhhhhhhggggggffffffeeeeeddddddcccccbbbbbbaaaaa--..-
(PID.TID 0000.0001) //    202 -..--aaaaabbbbbccccccdddddeeeeeefffffgggggghhhhhhhiiiiiijjjjjjjkkkkkkkklllllllllmmmmmmmmmmnnnnnnnnnnnnnnnnoooooooooooooooooooooooooooooooooooooooonnnnnnnnnnnnnnnnmmmmmmmmmmlllllllllkkkkkkkkjjjjjjjiiiiiihhhhhhhggggggfffffeeeeeedddddccccccbbbbbaaaaa--..-
(PID.TID 0000.0001) //    201 -..--aaaaabbbbbcccccddddddeeeeeffffffgggggghhhhhhiiiiiijjjjjjjkkkkkkklllllllllmmmmmmmmmmnnnnnnnnnnnnnoooooooooooooooooooooooooooooooooooooooooooooooooonnnnnnnnnnnnnmmmmmmmmmmlllllllllkkkkkkkjjjjjjjiiiiiihhhhhhggggggffffffeeeeeddddddcccccbbbbbaaaaa--..-
(PID.TID 0000.0001) //    200 -..--aaaaabbbbbcccccdddddeeeeeefffffgggggghhhhhhiiiiiijjjjjjkkkkkkkkllllllllmmmmmmmmmnnnnnnnnnnnnooooooooooooooooooooooppppppppppppppoooooooooooooooooooooonnnnnnnnnnnnmmmmmmmmmllllllllkkkkkkkkjjjjjjiiiiiihhhhhhggggggfffffeeeeeedddddcccccbbbbbaaaaa--..-
(PID.TID 0000.0001) //    199 -..--aaaaabbbbbcccccdddddeeeeefffffgggggghhhhhhiiiiiijjjjjjkkkkkkkllllllllmmmmmmmmmnnnnnnnnnnoooooooooooooooooppppppppppppppppppppppppppppppppooooooooooooooooonnnnnnnnnnmmmmmmmmmllllllllkkkkkkkjjjjjjiiiiiihhhhhhggggggfffffeeeeedddddcccccbbbbbaaaaa--..-
(PID.TID 0000.0001) //    198 -..-aaaaabbbbbcccccdddddeeeeeefffffggggghhhhhhiiiiiijjjjjjkkkkkkklllllllmmmmmmmmnnnnnnnnnnooooooooooooooppppppppppppppppppppppppppppppppppppppppppppoooooooooooooonnnnnnnnnnmmmmmmmmlllllllkkkkkkkjjjjjjiiiiiihhhhhhgggggfffffeeeeeedddddcccccbbbbbaaaaa-..-
(PID.TID 0000.0001) //    197 -..-aaaaabbbbbcccccdddddeeeeefffffgggggghhhhhiiiiiijjjjjjkkkkkkllllllllmmmmmmmnnnnnnnnnnooooooooooooppppppppppppppppppppppppppppppppppppppppppppppppppppoooooooooooonnnnnnnnnnmmmmmmmllllllllkkkkkkjjjjjjiiiiiihhhhhggggggfffffeeeeedddddcccccbbbbbaaaaa-..-
(PID.TID 0000.0001) //    196 -..-aaaaabbbbbcccccdddddeeeeefffffggggghhhhhiiiiiijjjjjjkkkkkklllllllmmmmmmmmnnnnnnnnooooooooooopppppppppppppppppppqqqqqqqqqqqqqqqqqqqqqqpppppppppppppppppppooooooooooonnnnnnnnmmmmmmmmlllllllkkkkkkjjjjjjiiiiiihhhhhgggggfffffeeeeedddddcccccbbbbbaaaaa-..-
(PID.TID 0000.0001) //    195 -..-aaaaabbbbbccccdddddeeeeefffffggggghhhhhhiiiiijjjjjjkkkkkklllllllmmmmmmmnnnnnnnnoooooooooopppppppppppppppqqqqqqqqqqqqqqqqqqqqqqqqqqqqqqqqqqqqpppppppppppppppoooooooooonnnnnnnnmmmmmmmlllllllkkkkkkjjjjjjiiiiihhhhhhgggggfffffeeeeedddddccccbbbbbaaaaa-..-
(PID.TID 0000.0001) //    194 -..-aaaaabbbbbccccdddddeeeeefffffggggghhhhhiiiiijjjjjjkkkkkkllllllmmmmmmmnnnnnnnnoooooooooopppppppppppppqqqqqqqqqqqqqqqqqqqqqqqqqqqqqqqqqqqqqqqqqqqqpppppppppppppoooooooooonnnnnnnnmmmmmmmllllllkkkkkkjjjjjjiiiiihhhhhgggggfffffeeeeedddddccccbbbbbaaaaa-..-
(PID.TID 0000.0001) //    193 -..-aaaaabbbbcccccdddddeeeefffffggggghhhhhiiiiijjjjjjkkkkkkllllllmmmmmmmnnnnnnnoooooooooppppppppppppqqqqqqqqqqqqqqqqqqqqqqqqqqqqqqqqqqqqqqqqqqqqqqqqqqqqppppppppppppooooooooonnnnnnnmmmmmmmllllllkkkkkkjjjjjjiiiiihhhhhgggggfffffeeeedddddcccccbbbbaaaaa-..-
(PID.TID 0000.0001) //    192 -..-aaaaabbbbcccccddddeeeeefffffggggghhhhhiiiiijjjjjkkkkkkllllllmmmmmmnnnnnnnnoooooooopppppppppppqqqqqqqqqqqqqqqqqrrrrrrrrrrrrrrrrrrrrrrrrqqqqqqqqqqqqqqqqqpppppppppppoooooooonnnnnnnnmmmmmmllllllkkkkkkjjjjjiiiiihhhhhgggggfffffeeeeeddddcccccbbbbaaaaa-..-
(PID.TID 0000.0001) //    191 -..-aaaaabbbbcccccddddeeeeeffffggggghhhhhiiiiijjjjjkkkkkkllllllmmmmmmnnnnnnnooooooooppppppppppqqqqqqqqqqqqqqrrrrrrrrrrrrrrrrrrrrrrrrrrrrrrrrrrrrqqqqqqqqqqqqqqppppppppppoooooooonnnnnnnmmmmmmllllllkkkkkkjjjjjiiiiihhhhhgggggffffeeeeeddddcccccbbbbaaaaa-..-
(PID.TID 0000.0001) //    190 -..-aaaaabbbbccccdddddeeeefffffggggghhhhiiiiijjjjjkkkkkkllllllmmmmmmnnnnnnnooooooopppppppppqqqqqqqqqqqqqrrrrrrrrrrrrrrrrrrrrrrrrrrrrrrrrrrrrrrrrrrrrqqqqqqqqqqqqqpppppppppooooooonnnnnnnmmmmmmllllllkkkkkkjjjjjiiiiihhhhgggggfffffeeeedddddccccbbbbaaaaa-..-
(PID.TID 0000.0001) //    189 -..-aaaabbbbbccccddddeeeeeffffggggghhhhhiiiiijjjjjkkkkkllllllmmmmmmnnnnnnooooooooppppppppqqqqqqqqqqqrrrrrrrrrrrrrrrrrrrrrrrrrrrrrrrrrrrrrrrrrrrrrrrrrrrrqqqqqqqqqqqppppppppoooooooonnnnnnmmmmmmllllllkkkkkjjjjjiiiiihhhhhgggggffffeeeeeddddccccbbbbbaaaa-..-
(PID.TID 0000.0001) //    188 -..-aaaabbbbbccccddddeeeeeffffggggghhhhiiiiijjjjjkkkkkllllllmmmmmmnnnnnnoooooooppppppppqqqqqqqqqqrrrrrrrrrrrrrrrrrssssssssssssssssssssssssrrrrrrrrrrrrrrrrrqqqqqqqqqqppppppppooooooonnnnnnmmmmmmllllllkkkkkjjjjjiiiiihhhhgggggffffeeeeeddddccccbbbbbaaaa-..-
(PID.TID 0000.0001) //    187 -..-aaaabbbbcccccddddeeeefffffgggghhhhhiiiijjjjjkkkkkllllllmmmmmmnnnnnnooooooopppppppqqqqqqqqqqrrrrrrrrrrrrrssssssssssssssssssssssssssssssssssssrrrrrrrrrrrrrqqqqqqqqqqpppppppooooooonnnnnnmmmmmmllllllkkkkkjjjjjiiiihhhhhggggfffffeeeeddddcccccbbbbaaaa-..-
(PID.TID 0000.0001) //    186 -..-aaaabbbbccccdddddeeeeffffggggghhhhiiiiijjjjjkkkkklllllmmmmmmnnnnnnooooooppppppppqqqqqqqqrrrrrrrrrrrrssssssssssssssssssssssssssssssssssssssssssssrrrrrrrrrrrrqqqqqqqqppppppppoooooonnnnnnmmmmmmlllllkkkkkjjjjjiiiiihhhhgggggffffeeeedddddccccbbbbaaaa-..-
(PID.TID 0000.0001) //    185 -..-aaaabbbbccccddddeeeeeffffgggghhhhhiiiijjjjjkkkkklllllmmmmmmnnnnnooooooopppppppqqqqqqqqrrrrrrrrrrrssssssssssssssssssssssssssssssssssssssssssssssssssrrrrrrrrrrrqqqqqqqqpppppppooooooonnnnnmmmmmmlllllkkkkkjjjjjiiiihhhhhggggffffeeeeeddddccccbbbbaaaa-..-
(PID.TID 0000.0001) //    184 -..-aaaabbbbccccddddeeeefffffgggghhhhiiiiijjjjkkkkklllllmmmmmmnnnnnoooooooppppppqqqqqqqqrrrrrrrrrrsssssssssssssssssttttttttttttttttttttttsssssssssssssssssrrrrrrrrrrqqqqqqqqppppppooooooonnnnnmmmmmmlllllkkkkkjjjjiiiiihhhhggggfffffeeeeddddccccbbbbaaaa-..-
(PID.TID 0000.0001) //    183 -..-aaaabbbbccccddddeeeeffffggggghhhhiiiijjjjjkkkkklllllmmmmmnnnnnoooooopppppppqqqqqqqqrrrrrrrrrssssssssssssssttttttttttttttttttttttttttttttttssssssssssssssrrrrrrrrrqqqqqqqqpppppppoooooonnnnnmmmmmlllllkkkkkjjjjjiiiihhhhgggggffffeeeeddddccccbbbbaaaa-..-
(PID.TID 0000.0001) //    182 -..-aaaabbbbccccddddeeeeffffgggghhhhiiiiijjjjkkkkklllllmmmmmnnnnnoooooopppppppqqqqqqqrrrrrrrrrssssssssssssttttttttttttttttttttttttttttttttttttttttssssssssssssrrrrrrrrrqqqqqqqpppppppoooooonnnnnmmmmmlllllkkkkkjjjjiiiiihhhhggggffffeeeeddddccccbbbbaaaa-..-
(PID.TID 0000.0001) //    181 -..-aaaabbbbccccddddeeeeffffgggghhhhiiiijjjjjkkkklllllmmmmmnnnnnnooooopppppppqqqqqqqrrrrrrrrsssssssssssttttttttttttttttttttttttttttttttttttttttttttttsssssssssssrrrrrrrrqqqqqqqpppppppooooonnnnnnmmmmmlllllkkkkjjjjjiiiihhhhggggffffeeeeddddccccbbbbaaaa-..-
(PID.TID 0000.0001) //    180 -..-aaaabbbbccccdddeeeeffffgggghhhhhiiiijjjjkkkkklllllmmmmnnnnnnoooooppppppqqqqqqqrrrrrrrrssssssssssttttttttttttttttttuuuuuuuuuuuuuuuuttttttttttttttttttssssssssssrrrrrrrrqqqqqqqppppppooooonnnnnnmmmmlllllkkkkkjjjjiiiihhhhhggggffffeeeedddccccbbbbaaaa-..-
(PID.TID 0000.0001) //    179 -..-aaaabbbbcccddddeeeeffffgggghhhhiiiijjjjjkkkklllllmmmmmnnnnnoooooppppppqqqqqqqrrrrrrrssssssssssttttttttttttttuuuuuuuuuuuuuuuuuuuuuuuuuuuuttttttttttttttssssssssssrrrrrrrqqqqqqqppppppooooonnnnnmmmmmlllllkkkkjjjjjiiiihhhhggggffffeeeeddddcccbbbbaaaa-..-
(PID.TID 0000.0001) //    178 -..-aaaabbbccccddddeeeeffffgggghhhhiiiijjjjkkkkkllllmmmmmnnnnnoooooppppppqqqqqqqrrrrrrrsssssssssttttttttttttuuuuuuuuuuuuuuuuuuuuuuuuuuuuuuuuuuuuttttttttttttsssssssssrrrrrrrqqqqqqqppppppooooonnnnnmmmmmllllkkkkkjjjjiiiihhhhggggffffeeeeddddccccbbbaaaa-..-
(PID.TID 0000.0001) //    177 -..-aaaabbbccccddddeeeeffffgggghhhhiiiijjjjkkkklllllmmmmnnnnnoooooopppppqqqqqqrrrrrrrssssssssstttttttttttuuuuuuuuuuuuuuuuuuuuuuuuuuuuuuuuuuuuuuuuuutttttttttttsssssssssrrrrrrrqqqqqqpppppoooooonnnnnmmmmlllllkkkkjjjjiiiihhhhggggffffeeeeddddccccbbbaaaa-..-
(PID.TID 0000.0001) //    176 -..-aaaabbbccccddddeeeffffgggghhhhiiiijjjjkkkkkllllmmmmmnnnnnooooopppppqqqqqqrrrrrrrssssssssttttttttttuuuuuuuuuuuuuuuuuuuuuuuuuuuuuuuuuuuuuuuuuuuuuuuuttttttttttssssssssrrrrrrrqqqqqqpppppooooonnnnnmmmmmllllkkkkkjjjjiiiihhhhggggffffeeeddddccccbbbaaaa-..-
(PID.TID 0000.0001) //    175 -..-aaaabbbccccddddeeeffffgggghhhhiiiijjjjkkkklllllmmmmnnnnnooooopppppqqqqqqrrrrrrrsssssssttttttttttuuuuuuuuuuuuuuuuvvvvvvvvvvvvvvvvvvvvuuuuuuuuuuuuuuuuttttttttttsssssssrrrrrrrqqqqqqpppppooooonnnnnmmmmlllllkkkkjjjjiiiihhhhggggffffeeeddddccccbbbaaaa-..-
(PID.TID 0000.0001) //    174 -..-aaabbbbccccdddeeeeffffgggghhhhiiiijjjjkkkkllllmmmmmnnnnoooooppppppqqqqqrrrrrrrssssssstttttttttuuuuuuuuuuuuuuvvvvvvvvvvvvvvvvvvvvvvvvvvvvuuuuuuuuuuuuuutttttttttsssssssrrrrrrrqqqqqppppppooooonnnnmmmmmllllkkkkjjjjiiiihhhhggggffffeeeedddccccbbbbaaa-..-
(PID.TID 0000.0001) //    173 -..-aaabbbbccccdddeeeeffffggghhhhiiiijjjjkkkklllllmmmmnnnnnooooopppppqqqqqrrrrrrrsssssssttttttttuuuuuuuuuuuuvvvvvvvvvvvvvvvvvvvvvvvvvvvvvvvvvvvvuuuuuuuuuuuuttttttttsssssssrrrrrrrqqqqqpppppooooonnnnnmmmmlllllkkkkjjjjiiiihhhhgggffffeeeedddccccbbbbaaa-..-
(PID.TID 0000.0001) //    172 -..-aaabbbbcccddddeeeefffgggghhhhiiiijjjjkkkkllllmmmmnnnnnooooopppppqqqqqrrrrrrsssssssttttttttuuuuuuuuuuuvvvvvvvvvvvvvvvvvvvvvvvvvvvvvvvvvvvvvvvvvvuuuuuuuuuuuttttttttsssssssrrrrrrqqqqqpppppooooonnnnnmmmmllllkkkkjjjjiiiihhhhggggfffeeeeddddcccbbbbaaa-..-
(PID.TID 0000.0001) //    171 -..-aaabbbbcccddddeeeefffgggghhhhiiiijjjkkkklllllmmmmnnnnooooopppppqqqqqqrrrrrsssssssttttttttuuuuuuuuuuvvvvvvvvvvvvvvvvvvvvvvvvvvvvvvvvvvvvvvvvvvvvvvuuuuuuuuuuttttttttsssssssrrrrrqqqqqqpppppooooonnnnmmmmlllllkkkkjjjiiiihhhhggggfffeeeeddddcccbbbbaaa-..-
(PID.TID 0000.0001) //    170 -..-aaabbbbcccddddeeeffffgggghhhiiiijjjjkkkkllllmmmmnnnnnoooooppppqqqqqqrrrrrrsssssstttttttuuuuuuuuuuvvvvvvvvvvvvvvvvwwwwwwwwwwwwwwwwwwvvvvvvvvvvvvvvvvuuuuuuuuuutttttttssssssrrrrrrqqqqqqppppooooonnnnnmmmmllllkkkkjjjjiiiihhhggggffffeeeddddcccbbbbaaa-..-
(PID.TID 0000.0001) //    169 -..-aaabbbbcccddddeeeffffggghhhhiiiijjjjkkkkllllmmmmnnnnooooopppppqqqqqrrrrrrsssssstttttttuuuuuuuuuvvvvvvvvvvvvvvwwwwwwwwwwwwwwwwwwwwwwwwwwvvvvvvvvvvvvvvuuuuuuuuutttttttssssssrrrrrrqqqqqpppppooooonnnnmmmmllllkkkkjjjjiiiihhhhgggffffeeeddddcccbbbbaaa-..-
(PID.TID 0000.0001) //    168 -..-aaabbbbcccddddeeeffffggghhhhiiiijjjkkkkllllmmmmmnnnnoooopppppqqqqqrrrrrrsssssstttttttuuuuuuuuvvvvvvvvvvvvwwwwwwwwwwwwwwwwwwwwwwwwwwwwwwwwwwvvvvvvvvvvvvuuuuuuuutttttttssssssrrrrrrqqqqqpppppoooonnnnmmmmmllllkkkkjjjiiiihhhhgggffffeeeddddcccbbbbaaa-..-
(PID.TID 0000.0001) //    167 -..-aaabbbbcccdddeeeefffgggghhhhiiijjjjkkkkllllmmmmnnnnooooopppppqqqqqrrrrrsssssstttttttuuuuuuuuvvvvvvvvvvvwwwwwwwwwwwwwwwwwwwwwwwwwwwwwwwwwwwwwwvvvvvvvvvvvuuuuuuuutttttttssssssrrrrrqqqqqpppppooooonnnnmmmmllllkkkkjjjjiiihhhhggggfffeeeedddcccbbbbaaa-..-
(PID.TID 0000.0001) //    166 -..-aaabbbccccdddeeeefffgggghhhiiiijjjjkkkkllllmmmmnnnnoooopppppqqqqqrrrrrsssssstttttttuuuuuuuvvvvvvvvvvvwwwwwwwwwwwwwwwwwwwwwwwwwwwwwwwwwwwwwwwwwwvvvvvvvvvvvuuuuuuutttttttssssssrrrrrqqqqqpppppoooonnnnmmmmllllkkkkjjjjiiiihhhggggfffeeeedddccccbbbaaa-..-
(PID.TID 0000.0001) //    165 -..-aaabbbccccdddeeeefffgggghhhiiiijjjjkkkllllmmmmnnnnoooooppppqqqqqrrrrrsssssstttttttuuuuuuuvvvvvvvvvvwwwwwwwwwwwwwwwwwwwxxxxxxxxwwwwwwwwwwwwwwwwwwwvvvvvvvvvvuuuuuuutttttttssssssrrrrrqqqqqppppooooonnnnmmmmllllkkkjjjjiiiihhhggggfffeeeedddccccbbbaaa-..-
(PID.TID 0000.0001) //    164 -..-aaabbbccccdddeeeefffggghhhhiiiijjjkkkkllllmmmmnnnnoooopppppqqqqqrrrrrssssstttttttuuuuuuuvvvvvvvvvwwwwwwwwwwwwwwwxxxxxxxxxxxxxxxxxxxxwwwwwwwwwwwwwwwvvvvvvvvvuuuuuuutttttttsssssrrrrrqqqqqpppppoooonnnnmmmmllllkkkkjjjiiiihhhhgggfffeeeedddccccbbbaaa-..-
(PID.TID 0000.0001) //    163 -..-aaabbbccccdddeeeffffggghhhhiiijjjjkkkkllllmmmmnnnnooooppppqqqqqrrrrrssssssttttttuuuuuuuvvvvvvvvwwwwwwwwwwwwwxxxxxxxxxxxxxxxxxxxxxxxxxxxxwwwwwwwwwwwwwvvvvvvvvuuuuuuuttttttssssssrrrrrqqqqqppppoooonnnnmmmmllllkkkkjjjjiiihhhhgggffffeeedddccccbbbaaa-..-
(PID.TID 0000.0001) //    162 -..-aaabbbccccdddeeeffffggghhhhiiijjjjkkkllllmmmmnnnnoooopppppqqqqrrrrrssssssttttttuuuuuuuvvvvvvvvwwwwwwwwwwwwxxxxxxxxxxxxxxxxxxxxxxxxxxxxxxxxwwwwwwwwwwwwvvvvvvvvuuuuuuuttttttssssssrrrrrqqqqpppppoooonnnnmmmmllllkkkjjjjiiihhhhgggffffeeedddccccbbbaaa-..-
(PID.TID 0000.0001) //    161 -..-aaabbbccccdddeeeffffggghhhiiiijjjjkkkllllmmmmnnnnooooppppqqqqqrrrrrsssssttttttuuuuuuuvvvvvvvvwwwwwwwwwwxxxxxxxxxxxxxxxxxxxxxxxxxxxxxxxxxxxxxxwwwwwwwwwwvvvvvvvvuuuuuuuttttttsssssrrrrrqqqqqppppoooonnnnmmmmllllkkkjjjjiiiihhhgggffffeeedddccccbbbaaa-..-
(PID.TID 0000.0001) //    160 -..-aaabbbcccddddeeefffgggghhhiiiijjjkkkkllllmmmnnnnoooooppppqqqqrrrrrsssssttttttuuuuuuuvvvvvvvwwwwwwwwwwwxxxxxxxxxxxxxxxxxxxxxxxxxxxxxxxxxxxxxxxxwwwwwwwwwwwvvvvvvvuuuuuuuttttttsssssrrrrrqqqqppppooooonnnnmmmllllkkkkjjjiiiihhhggggfffeeeddddcccbbbaaa-..-
(PID.TID 0000.0001) //    159 -..-aaabbbcccddddeeefffgggghhhiiiijjjkkkklllmmmmnnnnooooppppqqqqqrrrrrssssstttttuuuuuuuvvvvvvvwwwwwwwwwwxxxxxxxxxxxxxxxxxxxxxxxxxxxxxxxxxxxxxxxxxxxxwwwwwwwwwwvvvvvvvuuuuuuutttttsssssrrrrrqqqqqppppoooonnnnmmmmlllkkkkjjjiiiihhhggggfffeeeddddcccbbbaaa-..-
(PID.TID 0000.0001) //    158 -..-aaabbbcccddddeeefffggghhhhiiijjjjkkkllllmmmmnnnnooooppppqqqqrrrrrsssssttttttuuuuuuvvvvvvvwwwwwwwwwxxxxxxxxxxxxxxxxxyyyyyyyyyyyyyyxxxxxxxxxxxxxxxxxwwwwwwwwwvvvvvvvuuuuuuttttttsssssrrrrrqqqqppppoooonnnnmmmmllllkkkjjjjiiihhhhgggfffeeeddddcccbbbaaa-..-
(PID.TID 0000.0001) //    157 -..-aaabbbcccdddeeeefffggghhhhiiijjjjkkkllllmmmmnnnoooopppppqqqqrrrrrssssstttttuuuuuuvvvvvvvwwwwwwwwwxxxxxxxxxxxxxxyyyyyyyyyyyyyyyyyyyyyyxxxxxxxxxxxxxxwwwwwwwwwvvvvvvvuuuuuutttttsssssrrrrrqqqqpppppoooonnnmmmmllllkkkjjjjiiihhhhgggfffeeeedddcccbbbaaa-..-
(PID.TID 0000.0001) //    156 -..-aaabbbcccdddeeeefffggghhhhiiijjjkkkkllllmmmnnnnooooppppqqqqqrrrrssssstttttuuuuuuvvvvvvvwwwwwwwwwxxxxxxxxxxxxyyyyyyyyyyyyyyyyyyyyyyyyyyyyxxxxxxxxxxxxwwwwwwwwwvvvvvvvuuuuuutttttsssssrrrrqqqqqppppoooonnnnmmmllllkkkkjjjiiihhhhgggfffeeeedddcccbbbaaa-..-
(PID.TID 0000.0001) //    155 -..-aaabbbcccdddeeeefffggghhhiiiijjjkkkklllmmmmnnnnooooppppqqqqrrrrrssssstttttuuuuuuvvvvvvwwwwwwwwxxxxxxxxxxxxyyyyyyyyyyyyyyyyyyyyyyyyyyyyyyyyxxxxxxxxxxxxwwwwwwwwvvvvvvuuuuuutttttsssssrrrrrqqqqppppoooonnnnmmmmlllkkkkjjjiiiihhhgggfffeeeedddcccbbbaaa-..-
(PID.TID 0000.0001) //    154 -..-aaabbbcccdddeeeffffggghhhiiiijjjkkkklllmmmmnnnnooopppppqqqqrrrrssssstttttuuuuuuvvvvvvvwwwwwwwxxxxxxxxxxxyyyyyyyyyyyyyyyyyyyyyyyyyyyyyyyyyyyyxxxxxxxxxxxwwwwwwwvvvvvvvuuuuuutttttsssssrrrrqqqqpppppooonnnnmmmmlllkkkkjjjiiiihhhgggffffeeedddcccbbbaaa-..-
(PID.TID 0000.0001) //    153 -..-aaabbbcccdddeeeffffggghhhiiijjjjkkkllllmmmmnnnooooppppqqqqrrrrrssssstttttuuuuuvvvvvvvwwwwwwwxxxxxxxxxxxyyyyyyyyyyyyyyyyyyyyyyyyyyyyyyyyyyyyyyxxxxxxxxxxxwwwwwwwvvvvvvvuuuuutttttsssssrrrrrqqqqppppoooonnnmmmmllllkkkjjjjiiihhhgggffffeeedddcccbbbaaa-..-
(PID.TID 0000.0001) //    152 -..-aaabbbcccdddeeefffgggghhhiiijjjjkkkllllmmmnnnnooooppppqqqqrrrrssssstttttuuuuuuvvvvvvwwwwwwwxxxxxxxxxxyyyyyyyyyyyyyyyyyyyyyyyyyyyyyyyyyyyyyyyyyyxxxxxxxxxxwwwwwwwvvvvvvuuuuuutttttsssssrrrrqqqqppppoooonnnnmmmllllkkkjjjjiiihhhggggfffeeedddcccbbbaaa-..-
(PID.TID 0000.0001) //    151 -..-aaabbbcccdddeeefffgggghhhiiijjjjkkklllmmmmnnnnooooppppqqqqrrrrssssstttttuuuuuvvvvvvwwwwwwwwxxxxxxxxxyyyyyyyyyyyyyyyyyyyyyyyyyyyyyyyyyyyyyyyyyyyyxxxxxxxxxwwwwwwwwvvvvvvuuuuutttttsssssrrrrqqqqppppoooonnnnmmmmlllkkkjjjjiiihhhggggfffeeedddcccbbbaaa-..-
(PID.TID 0000.0001) //    150 -..-aaabbbcccdddeeefffggghhhhiiijjjkkkklllmmmmnnnnoooppppqqqqrrrrrsssstttttuuuuuuvvvvvvwwwwwwwxxxxxxxxxyyyyyyyyyyyyyyyyzzzzzzzzzzzzzzyyyyyyyyyyyyyyyyxxxxxxxxxwwwwwwwvvvvvvuuuuuutttttssssrrrrrqqqqppppooonnnnmmmmlllkkkkjjjiiihhhhgggfffeeedddcccbbbaaa-..-
(PID.TID 0000.0001) //    149 -..-aaabbbcccdddeeefffggghhhhiiijjjkkkklllmmmmnnnooooppppqqqqrrrrssssstttttuuuuuvvvvvvwwwwwwwxxxxxxxxxyyyyyyyyyyyyyyzzzzzzzzzzzzzzzzzzzzyyyyyyyyyyyyyyxxxxxxxxxwwwwwwwvvvvvvuuuuutttttsssssrrrrqqqqppppoooonnnmmmmlllkkkkjjjiiihhhhgggfffeeedddcccbbbaaa-..-
(PID.TID 0000.0001) //    148 -..-aaabbbcccdddeeefffggghhhhiiijjjkkkllllmmmnnnnooooppppqqqqrrrrsssssttttuuuuuuvvvvvvwwwwwwxxxxxxxxxyyyyyyyyyyyyyzzzzzzzzzzzzzzzzzzzzzzzzyyyyyyyyyyyyyxxxxxxxxxwwwwwwvvvvvvuuuuuuttttsssssrrrrqqqqppppoooonnnnmmmllllkkkjjjiiihhhhgggfffeeedddcccbbbaaa-..-
(PID.TID 0000.0001) //    147 -..-aaabbbcccdddeeefffggghhhiiiijjjkkkllllmmmnnnnooooppppqqqqrrrrsssstttttuuuuuvvvvvvwwwwwwwxxxxxxxxyyyyyyyyyyyyzzzzzzzzzzzzzzzzzzzzzzzzzzzzyyyyyyyyyyyyxxxxxxxxwwwwwwwvvvvvvuuuuutttttssssrrrrqqqqppppoooonnnnmmmllllkkkjjjiiiihhhgggfffeeedddcccbbbaaa-..-
(PID.TID 0000.0001) //    146 -..-aaabbbcccdddeeefffggghhhiiiijjjkkkllllmmmnnnnoooppppqqqqrrrrssssstttttuuuuuvvvvvvwwwwwwxxxxxxxxyyyyyyyyyyyzzzzzzzzzzzzzzzzzzzzzzzzzzzzzzzzyyyyyyyyyyyxxxxxxxxwwwwwwvvvvvvuuuuutttttsssssrrrrqqqqppppooonnnnmmmllllkkkjjjiiiihhhgggfffeeedddcccbbbaaa-..-
(PID.TID 0000.0001) //    145 -..-aaabbbcccdddeeefffggghhhiiijjjjkkklllmmmmnnnnoooppppqqqqrrrrsssssttttuuuuuvvvvvvwwwwwwwxxxxxxxyyyyyyyyyyyzzzzzzzzzzzzzzzzzzzzzzzzzzzzzzzzzzyyyyyyyyyyyxxxxxxxwwwwwwwvvvvvvuuuuuttttsssssrrrrqqqqppppooonnnnmmmmlllkkkjjjjiiihhhgggfffeeedddcccbbbaaa-..-
(PID.TID 0000.0001) //    144 -..-aaabbbcccdddeeefffggghhhiiijjjjkkklllmmmmnnnooooppppqqqqrrrrsssstttttuuuuuvvvvvvwwwwwwxxxxxxxxyyyyyyyyyyzzzzzzzzzzzzzzzzzzzzzzzzzzzzzzzzzzzzyyyyyyyyyyxxxxxxxxwwwwwwvvvvvvuuuuutttttssssrrrrqqqqppppoooonnnmmmmlllkkkjjjjiiihhhgggfffeeedddcccbbbaaa-..-
(PID.TID 0000.0001) //    143 -..-aaabbbcccdddeeefffggghhhiiijjjkkkklllmmmmnnnooooppppqqqqrrrrsssstttttuuuuuvvvvvwwwwwwxxxxxxxxyyyyyyyyyyzzzzzzzzzzzzzzzzzzzzzzzzzzzzzzzzzzzzzzyyyyyyyyyyxxxxxxxxwwwwwwvvvvvuuuuutttttssssrrrrqqqqppppoooonnnmmmmlllkkkkjjjiiihhhgggfffeeedddcccbbbaaa-..-
(PID.TID 0000.0001) //    142 -..-aaabbbcccdddeeefffggghhhiiijjjkkkklllmmmnnnnoooopppqqqqrrrrsssssttttuuuuuvvvvvvwwwwwwxxxxxxxyyyyyyyyyyzzzzzzzzzzzzzzzzzzzzzzzzzzzzzzzzzzzzzzzzyyyyyyyyyyxxxxxxxwwwwwwvvvvvvuuuuuttttsssssrrrrqqqqpppoooonnnnmmmlllkkkkjjjiiihhhgggfffeeedddcccbbbaaa-..-
(PID.TID 0000.0001) //    141 -..-aaabbbcccdddeeefffggghhhiiijjjkkkklllmmmnnnnoooopppqqqqrrrrsssssttttuuuuuvvvvvwwwwwwwxxxxxxxyyyyyyyyyzzzzzzzzzzzzzzzzzzzzzzzzzzzzzzzzzzzzzzzzzzyyyyyyyyyxxxxxxxwwwwwwwvvvvvuuuuuttttsssssrrrrqqqqpppoooonnnnmmmlllkkkkjjjiiihhhgggfffeeedddcccbbbaaa-..-
(PID.TID 0000.0001) //    140 -..-aaabbcccddddeeefffggghhhiiijjjkkkllllmmmnnnnoooppppqqqqrrrrsssstttttuuuuuvvvvvwwwwwwxxxxxxxyyyyyyyyyzzzzzzzzzzzzzzzzzzzzzzzzzzzzzzzzzzzzzzzzzzzzyyyyyyyyyxxxxxxxwwwwwwvvvvvuuuuutttttssssrrrrqqqqppppooonnnnmmmllllkkkjjjiiihhhgggfffeeeddddcccbbaaa-..-
(PID.TID 0000.0001) //    139 -..-aabbbcccdddeeeffffggghhhiiijjjkkkllllmmmnnnnoooppppqqqqrrrrsssstttttuuuuuvvvvvwwwwwwxxxxxxxyyyyyyyyyzzzzzzzzzzzzzzzzz++++++++++zzzzzzzzzzzzzzzzzyyyyyyyyyxxxxxxxwwwwwwvvvvvuuuuutttttssssrrrrqqqqppppooonnnnmmmllllkkkjjjiiihhhgggffffeeedddcccbbbaa-..-
(PID.TID 0000.0001) //    138 -..-aabbbcccdddeeeffffggghhhiiijjjkkkllllmmmnnnnoooppppqqqqrrrrssssttttuuuuuvvvvvvwwwwwxxxxxxxyyyyyyyyyzzzzzzzzzzzzzzzz++++++++++++++zzzzzzzzzzzzzzzzyyyyyyyyyxxxxxxxwwwwwvvvvvvuuuuuttttssssrrrrqqqqppppooonnnnmmmllllkkkjjjiiihhhgggffffeeedddcccbbbaa-..-
(PID.TID 0000.0001) //    137 -..-aabbbcccdddeeefffgggghhhiiijjjkkkllllmmmnnnooooppppqqqqrrrrssssttttuuuuuvvvvvwwwwwwxxxxxxxyyyyyyyyyzzzzzzzzzzzzzz++++++++++++++++++zzzzzzzzzzzzzzyyyyyyyyyxxxxxxxwwwwwwvvvvvuuuuuttttssssrrrrqqqqppppoooonnnmmmllllkkkjjjiiihhhggggfffeeedddcccbbbaa-..-
(PID.TID 0000.0001) //    136 -..-aabbbcccdddeeefffggghhhhiiijjjkkklllmmmmnnnooooppppqqqrrrrsssssttttuuuuuvvvvvwwwwwwxxxxxxxyyyyyyyyzzzzzzzzzzzzzz++++++++++++++++++++zzzzzzzzzzzzzzyyyyyyyyxxxxxxxwwwwwwvvvvvuuuuuttttsssssrrrrqqqppppoooonnnmmmmlllkkkjjjiiihhhhgggfffeeedddcccbbbaa-..-
(PID.TID 0000.0001) //    135 -..-aabbbcccdddeeefffggghhhhiiijjjkkklllmmmmnnnoooopppqqqqrrrrsssstttttuuuuuvvvvvwwwwwwxxxxxxyyyyyyyyyzzzzzzzzzzzzz++++++++++++++++++++++zzzzzzzzzzzzzyyyyyyyyyxxxxxxwwwwwwvvvvvuuuuutttttssssrrrrqqqqpppoooonnnmmmmlllkkkjjjiiihhhhgggfffeeedddcccbbbaa-..-
(PID.TID 0000.0001) //    134 -..-aabbbcccdddeeefffggghhhiiiijjjkkklllmmmmnnnoooopppqqqqrrrrsssstttttuuuuvvvvvvwwwwwxxxxxxxyyyyyyyyzzzzzzzzzzzzz++++++++++++++++++++++++zzzzzzzzzzzzzyyyyyyyyxxxxxxxwwwwwvvvvvvuuuutttttssssrrrrqqqqpppoooonnnmmmmlllkkkjjjiiiihhhgggfffeeedddcccbbbaa-..-
(PID.TID 0000.0001) //    133 a..aaabbbcccdddeeefffggghhhiiiijjjkkklllmmmmnnnoooopppqqqqrrrrsssstttttuuuuvvvvvwwwwwwxxxxxxxyyyyyyyyzzzzzzzzzzzz++++++++++++++++++++++++++zzzzzzzzzzzzyyyyyyyyxxxxxxxwwwwwwvvvvvuuuutttttssssrrrrqqqqpppoooonnnmmmmlllkkkjjjiiiihhhgggfffeeedddcccbbbaaa..a
(PID.TID 0000.0001) //    132 a..aaabbbcccdddeeefffggghhhiiiijjjkkklllmmmmnnnoooopppqqqqrrrrssssttttuuuuuvvvvvwwwwwwxxxxxxxyyyyyyyyzzzzzzzzzzzz++++++++++++++++++++++++++zzzzzzzzzzzzyyyyyyyyxxxxxxxwwwwwwvvvvvuuuuuttttssssrrrrqqqqpppoooonnnmmmmlllkkkjjjiiiihhhgggfffeeedddcccbbbaaa..a
(PID.TID 0000.0001) //    131 a..aaabbbcccdddeeefffggghhhiiiijjjkkklllmmmmnnnoooppppqqqqrrrrssssttttuuuuuvvvvvwwwwwwxxxxxxyyyyyyyyzzzzzzzzzzzz++++++++++++++++++++++++++++zzzzzzzzzzzzyyyyyyyyxxxxxxwwwwwwvvvvvuuuuuttttssssrrrrqqqqppppooonnnmmmmlllkkkjjjiiiihhhgggfffeeedddcccbbbaaa..a
(PID.TID 0000.0001) //    130 a..aaabbbcccdddeeefffggghhhiiijjjjkkklllmmmnnnnoooppppqqqqrrrrssssttttuuuuuvvvvvwwwwwwxxxxxxyyyyyyyyzzzzzzzzzzzz++++++++++++++++++++++++++++zzzzzzzzzzzzyyyyyyyyxxxxxxwwwwwwvvvvvuuuuuttttssssrrrrqqqqppppooonnnnmmmlllkkkjjjjiiihhhgggfffeeedddcccbbbaaa..a
(PID.TID 0000.0001) //    129 a..aaabbbcccdddeeefffggghhhiiijjjjkkklllmmmnnnnoooppppqqqqrrrrssssttttuuuuuvvvvvwwwwwwxxxxxxyyyyyyyyzzzzzzzzzzz++++++++++++++++++++++++++++++zzzzzzzzzzzyyyyyyyyxxxxxxwwwwwwvvvvvuuuuuttttssssrrrrqqqqppppooonnnnmmmlllkkkjjjjiiihhhgggfffeeedddcccbbbaaa..a
(PID.TID 0000.0001) //    128 a..aaabbbcccdddeeefffggghhhiiijjjjkkklllmmmnnnnoooppppqqqqrrrrssssttttuuuuuvvvvvwwwwwxxxxxxxyyyyyyyyzzzzzzzzzzz++++++++++++++++++++++++++++++zzzzzzzzzzzyyyyyyyyxxxxxxxwwwwwvvvvvuuuuuttttssssrrrrqqqqppppooonnnnmmmlllkkkjjjjiiihhhgggfffeeedddcccbbbaaa..a
(PID.TID 0000.0001) //    127 a..aaabbbcccdddeeefffggghhhiiijjjjkkklllmmmnnnnoooppppqqqqrrrrssssttttuuuuuvvvvvwwwwwxxxxxxxyyyyyyyyzzzzzzzzzzz++++++++++++++++++++++++++++++zzzzzzzzzzzyyyyyyyyxxxxxxxwwwwwvvvvvuuuuuttttssssrrrrqqqqppppooonnnnmmmlllkkkjjjjiiihhhgggfffeeedddcccbbbaaa..a
(PID.TID 0000.0001) //    126 a..aaabbbcccdddeeefffggghhhiiijjjjkkklllmmmnnnnoooppppqqqqrrrrssssttttuuuuuvvvvvwwwwwxxxxxxxyyyyyyyyzzzzzzzzzzz++++++++++++++++++++++++++++++zzzzzzzzzzzyyyyyyyyxxxxxxxwwwwwvvvvvuuuuuttttssssrrrrqqqqppppooonnnnmmmlllkkkjjjjiiihhhgggfffeeedddcccbbbaaa..a
(PID.TID 0000.0001) //    125 a..aaabbbcccdddeeefffggghhhiiijjjjkkklllmmmnnnnoooppppqqqqrrrrssssttttuuuuuvvvvvwwwwwxxxxxxxyyyyyyyyzzzzzzzzzzz++++++++++++++++++++++++++++++zzzzzzzzzzzyyyyyyyyxxxxxxxwwwwwvvvvvuuuuuttttssssrrrrqqqqppppooonnnnmmmlllkkkjjjjiiihhhgggfffeeedddcccbbbaaa..a
(PID.TID 0000.0001) //    124 a..aaabbbcccdddeeefffggghhhiiijjjjkkklllmmmnnnnoooppppqqqqrrrrssssttttuuuuuvvvvvwwwwwxxxxxxxyyyyyyyyzzzzzzzzzzz++++++++++++++++++++++++++++++zzzzzzzzzzzyyyyyyyyxxxxxxxwwwwwvvvvvuuuuuttttssssrrrrqqqqppppooonnnnmmmlllkkkjjjjiiihhhgggfffeeedddcccbbbaaa..a
(PID.TID 0000.0001) //    123 a..aaabbbcccdddeeefffggghhhiiijjjjkkklllmmmnnnnoooppppqqqqrrrrssssttttuuuuuvvvvvwwwwwxxxxxxxyyyyyyyyzzzzzzzzzzz++++++++++++++++++++++++++++++zzzzzzzzzzzyyyyyyyyxxxxxxxwwwwwvvvvvuuuuuttttssssrrrrqqqqppppooonnnnmmmlllkkkjjjjiiihhhgggfffeeedddcccbbbaaa..a
(PID.TID 0000.0001) //    122 a..aaabbbcccdddeeefffggghhhiiijjjjkkklllmmmnnnnoooppppqqqqrrrrssssttttuuuuuvvvvvwwwwwxxxxxxxyyyyyyyyzzzzzzzzzzz++++++++++++++++++++++++++++++zzzzzzzzzzzyyyyyyyyxxxxxxxwwwwwvvvvvuuuuuttttssssrrrrqqqqppppooonnnnmmmlllkkkjjjjiiihhhgggfffeeedddcccbbbaaa..a
(PID.TID 0000.0001) //    121 a..aaabbbcccdddeeefffggghhhiiijjjjkkklllmmmnnnnoooppppqqqqrrrrssssttttuuuuuvvvvvwwwwwxxxxxxxyyyyyyyyzzzzzzzzzzz++++++++++++++++++++++++++++++zzzzzzzzzzzyyyyyyyyxxxxxxxwwwwwvvvvvuuuuuttttssssrrrrqqqqppppooonnnnmmmlllkkkjjjjiiihhhgggfffeeedddcccbbbaaa..a
(PID.TID 0000.0001) //    120 a..aaabbbcccdddeeefffggghhhiiijjjjkkklllmmmnnnnoooppppqqqqrrrrssssttttuuuuuvvvvvwwwwwwxxxxxxyyyyyyyyzzzzzzzzzzz++++++++++++++++++++++++++++++zzzzzzzzzzzyyyyyyyyxxxxxxwwwwwwvvvvvuuuuuttttssssrrrrqqqqppppooonnnnmmmlllkkkjjjjiiihhhgggfffeeedddcccbbbaaa..a
(PID.TID 0000.0001) //    119 a..aaabbbcccdddeeefffggghhhiiijjjjkkklllmmmnnnnoooppppqqqqrrrrssssttttuuuuuvvvvvwwwwwwxxxxxxyyyyyyyyzzzzzzzzzzzz++++++++++++++++++++++++++++zzzzzzzzzzzzyyyyyyyyxxxxxxwwwwwwvvvvvuuuuuttttssssrrrrqqqqppppooonnnnmmmlllkkkjjjjiiihhhgggfffeeedddcccbbbaaa..a
(PID.TID 0000.0001) //    118 a..aaabbbcccdddeeefffggghhhiiiijjjkkklllmmmmnnnoooppppqqqqrrrrssssttttuuuuuvvvvvwwwwwwxxxxxxyyyyyyyyzzzzzzzzzzzz++++++++++++++++++++++++++++zzzzzzzzzzzzyyyyyyyyxxxxxxwwwwwwvvvvvuuuuuttttssssrrrrqqqqppppooonnnmmmmlllkkkjjjiiiihhhgggfffeeedddcccbbbaaa..a
(PID.TID 0000.0001) //    117 a..aaabbbcccdddeeefffggghhhiiiijjjkkklllmmmmnnnoooopppqqqqrrrrssssttttuuuuuvvvvvwwwwwwxxxxxxxyyyyyyyyzzzzzzzzzzzz++++++++++++++++++++++++++zzzzzzzzzzzzyyyyyyyyxxxxxxxwwwwwwvvvvvuuuuuttttssssrrrrqqqqpppoooonnnmmmmlllkkkjjjiiiihhhgggfffeeedddcccbbbaaa..a
(PID.TID 0000.0001) //    116 a..aaabbbcccdddeeefffggghhhiiiijjjkkklllmmmmnnnoooopppqqqqrrrrsssstttttuuuuvvvvvwwwwwwxxxxxxxyyyyyyyyzzzzzzzzzzzz++++++++++++++++++++++++++zzzzzzzzzzzzyyyyyyyyxxxxxxxwwwwwwvvvvvuuuutttttssssrrrrqqqqpppoooonnnmmmmlllkkkjjjiiiihhhgggfffeeedddcccbbbaaa..a
(PID.TID 0000.0001) //    115 -..-aabbbcccdddeeefffggghhhiiiijjjkkklllmmmmnnnoooopppqqqqrrrrsssstttttuuuuvvvvvvwwwwwxxxxxxxyyyyyyyyzzzzzzzzzzzzz++++++++++++++++++++++++zzzzzzzzzzzzzyyyyyyyyxxxxxxxwwwwwvvvvvvuuuutttttssssrrrrqqqqpppoooonnnmmmmlllkkkjjjiiiihhhgggfffeeedddcccbbbaa-..-
(PID.TID 0000.0001) //    114 -..-aabbbcccdddeeefffggghhhhiiijjjkkklllmmmmnnnoooopppqqqqrrrrsssstttttuuuuuvvvvvwwwwwwxxxxxxyyyyyyyyyzzzzzzzzzzzzz++++++++++++++++++++++zzzzzzzzzzzzzyyyyyyyyyxxxxxxwwwwwwvvvvvuuuuutttttssssrrrrqqqqpppoooonnnmmmmlllkkkjjjiiihhhhgggfffeeedddcccbbbaa-..-
(PID.TID 0000.0001) //    113 -..-aabbbcccdddeeefffggghhhhiiijjjkkklllmmmmnnnooooppppqqqrrrrsssssttttuuuuuvvvvvwwwwwwxxxxxxxyyyyyyyyzzzzzzzzzzzzzz++++++++++++++++++++zzzzzzzzzzzzzzyyyyyyyyxxxxxxxwwwwwwvvvvvuuuuuttttsssssrrrrqqqppppoooonnnmmmmlllkkkjjjiiihhhhgggfffeeedddcccbbbaa-..-
(PID.TID 0000.0001) //    112 -..-aabbbcccdddeeefffgggghhhiiijjjkkkllllmmmnnnooooppppqqqqrrrrssssttttuuuuuvvvvvwwwwwwxxxxxxxyyyyyyyyyzzzzzzzzzzzzzz++++++++++++++++++zzzzzzzzzzzzzzyyyyyyyyyxxxxxxxwwwwwwvvvvvuuuuuttttssssrrrrqqqqppppoooonnnmmmllllkkkjjjiiihhhggggfffeeedddcccbbbaa-..-
(PID.TID 0000.0001) //    111 -..-aabbbcccdddeeeffffggghhhiiijjjkkkllllmmmnnnnoooppppqqqqrrrrssssttttuuuuuvvvvvvwwwwwxxxxxxxyyyyyyyyyzzzzzzzzzzzzzzzz++++++++++++++zzzzzzzzzzzzzzzzyyyyyyyyyxxxxxxxwwwwwvvvvvvuuuuuttttssssrrrrqqqqppppooonnnnmmmllllkkkjjjiiihhhgggffffeeedddcccbbbaa-..-
(PID.TID 0000.0001) //    110 -..-aabbbcccdddeeeffffggghhhiiijjjkkkllllmmmnnnnoooppppqqqqrrrrsssstttttuuuuuvvvvvwwwwwwxxxxxxxyyyyyyyyyzzzzzzzzzzzzzzzzz++++++++++zzzzzzzzzzzzzzzzzyyyyyyyyyxxxxxxxwwwwwwvvvvvuuuuutttttssssrrrrqqqqppppooonnnnmmmllllkkkjjjiiihhhgggffffeeedddcccbbbaa-..-
(PID.TID 0000.0001) //    109 -..-aaabbcccddddeeefffggghhhiiijjjkkkllllmmmnnnnoooppppqqqqrrrrsssstttttuuuuuvvvvvwwwwwwxxxxxxxyyyyyyyyyzzzzzzzzzzzzzzzzzzzzzzzzzzzzzzzzzzzzzzzzzzzzyyyyyyyyyxxxxxxxwwwwwwvvvvvuuuuutttttssssrrrrqqqqppppooonnnnmmmllllkkkjjjiiihhhgggfffeeeddddcccbbaaa-..-
(PID.TID 0000.0001) //    108 -..-aaabbbcccdddeeefffggghhhiiijjjkkkklllmmmnnnnoooopppqqqqrrrrsssssttttuuuuuvvvvvwwwwwwwxxxxxxxyyyyyyyyyzzzzzzzzzzzzzzzzzzzzzzzzzzzzzzzzzzzzzzzzzzyyyyyyyyyxxxxxxxwwwwwwwvvvvvuuuuuttttsssssrrrrqqqqpppoooonnnnmmmlllkkkkjjjiiihhhgggfffeeedddcccbbbaaa-..-
(PID.TID 0000.0001) //    107 -..-aaabbbcccdddeeefffggghhhiiijjjkkkklllmmmnnnnoooopppqqqqrrrrsssssttttuuuuuvvvvvvwwwwwwxxxxxxxyyyyyyyyyyzzzzzzzzzzzzzzzzzzzzzzzzzzzzzzzzzzzzzzzzyyyyyyyyyyxxxxxxxwwwwwwvvvvvvuuuuuttttsssssrrrrqqqqpppoooonnnnmmmlllkkkkjjjiiihhhgggfffeeedddcccbbbaaa-..-
(PID.TID 0000.0001) //    106 -..-aaabbbcccdddeeefffggghhhiiijjjkkkklllmmmmnnnooooppppqqqqrrrrsssstttttuuuuuvvvvvwwwwwwxxxxxxxxyyyyyyyyyyzzzzzzzzzzzzzzzzzzzzzzzzzzzzzzzzzzzzzzyyyyyyyyyyxxxxxxxxwwwwwwvvvvvuuuuutttttssssrrrrqqqqppppoooonnnmmmmlllkkkkjjjiiihhhgggfffeeedddcccbbbaaa-..-
(PID.TID 0000.0001) //    105 -..-aaabbbcccdddeeefffggghhhiiijjjjkkklllmmmmnnnooooppppqqqqrrrrsssstttttuuuuuvvvvvvwwwwwwxxxxxxxxyyyyyyyyyyzzzzzzzzzzzzzzzzzzzzzzzzzzzzzzzzzzzzyyyyyyyyyyxxxxxxxxwwwwwwvvvvvvuuuuutttttssssrrrrqqqqppppoooonnnmmmmlllkkkjjjjiiihhhgggfffeeedddcccbbbaaa-..-
(PID.TID 0000.0001) //    104 -..-aaabbbcccdddeeefffggghhhiiijjjjkkklllmmmmnnnnoooppppqqqqrrrrsssssttttuuuuuvvvvvvwwwwwwwxxxxxxxyyyyyyyyyyyzzzzzzzzzzzzzzzzzzzzzzzzzzzzzzzzzzyyyyyyyyyyyxxxxxxxwwwwwwwvvvvvvuuuuuttttsssssrrrrqqqqppppooonnnnmmmmlllkkkjjjjiiihhhgggfffeeedddcccbbbaaa-..-
(PID.TID 0000.0001) //    103 -..-aaabbbcccdddeeefffggghhhiiiijjjkkkllllmmmnnnnoooppppqqqqrrrrssssstttttuuuuuvvvvvvwwwwwwxxxxxxxxyyyyyyyyyyyzzzzzzzzzzzzzzzzzzzzzzzzzzzzzzzzyyyyyyyyyyyxxxxxxxxwwwwwwvvvvvvuuuuutttttsssssrrrrqqqqppppooonnnnmmmllllkkkjjjiiiihhhgggfffeeedddcccbbbaaa-..-
(PID.TID 0000.0001) //    102 -..-aaabbbcccdddeeefffggghhhiiiijjjkkkllllmmmnnnnooooppppqqqqrrrrsssstttttuuuuuvvvvvvwwwwwwwxxxxxxxxyyyyyyyyyyyyzzzzzzzzzzzzzzzzzzzzzzzzzzzzyyyyyyyyyyyyxxxxxxxxwwwwwwwvvvvvvuuuuutttttssssrrrrqqqqppppoooonnnnmmmllllkkkjjjiiiihhhgggfffeeedddcccbbbaaa-..-
(PID.TID 0000.0001) //    101 -..-aaabbbcccdddeeefffggghhhhiiijjjkkkllllmmmnnnnooooppppqqqqrrrrsssssttttuuuuuuvvvvvvwwwwwwxxxxxxxxxyyyyyyyyyyyyyzzzzzzzzzzzzzzzzzzzzzzzzyyyyyyyyyyyyyxxxxxxxxxwwwwwwvvvvvvuuuuuuttttsssssrrrrqqqqppppoooonnnnmmmllllkkkjjjiiihhhhgggfffeeedddcccbbbaaa-..-
(PID.TID 0000.0001) //    100 -..-aaabbbcccdddeeefffggghhhhiiijjjkkkklllmmmmnnnooooppppqqqqrrrrssssstttttuuuuuvvvvvvwwwwwwwxxxxxxxxxyyyyyyyyyyyyyyzzzzzzzzzzzzzzzzzzzzyyyyyyyyyyyyyyxxxxxxxxxwwwwwwwvvvvvvuuuuutttttsssssrrrrqqqqppppoooonnnmmmmlllkkkkjjjiiihhhhgggfffeeedddcccbbbaaa-..-
(PID.TID 0000.0001) //     99 -..-aaabbbcccdddeeefffggghhhhiiijjjkkkklllmmmmnnnnoooppppqqqqrrrrrsssstttttuuuuuuvvvvvvwwwwwwwxxxxxxxxxyyyyyyyyyyyyyyyyzzzzzzzzzzzzzzyyyyyyyyyyyyyyyyxxxxxxxxxwwwwwwwvvvvvvuuuuuutttttssssrrrrrqqqqppppooonnnnmmmmlllkkkkjjjiiihhhhgggfffeeedddcccbbbaaa-..-
(PID.TID 0000.0001) //     98 -..-aaabbbcccdddeeefffgggghhhiiijjjjkkklllmmmmnnnnooooppppqqqqrrrrssssstttttuuuuuvvvvvvwwwwwwwwxxxxxxxxxyyyyyyyyyyyyyyyyyyyyyyyyyyyyyyyyyyyyyyyyyyyyxxxxxxxxxwwwwwwwwvvvvvvuuuuutttttsssssrrrrqqqqppppoooonnnnmmmmlllkkkjjjjiiihhhggggfffeeedddcccbbbaaa-..-
(PID.TID 0000.0001) //     97 -..-aaabbbcccdddeeefffgggghhhiiijjjjkkkllllmmmnnnnooooppppqqqqrrrrssssstttttuuuuuuvvvvvvwwwwwwwxxxxxxxxxxyyyyyyyyyyyyyyyyyyyyyyyyyyyyyyyyyyyyyyyyyyxxxxxxxxxxwwwwwwwvvvvvvuuuuuutttttsssssrrrrqqqqppppoooonnnnmmmllllkkkjjjjiiihhhggggfffeeedddcccbbbaaa-..-
(PID.TID 0000.0001) //     96 -..-aaabbbcccdddeeeffffggghhhiiijjjjkkkllllmmmmnnnooooppppqqqqrrrrrssssstttttuuuuuvvvvvvvwwwwwwwxxxxxxxxxxxyyyyyyyyyyyyyyyyyyyyyyyyyyyyyyyyyyyyyyxxxxxxxxxxxwwwwwwwvvvvvvvuuuuutttttsssssrrrrrqqqqppppoooonnnmmmmllllkkkjjjjiiihhhgggffffeeedddcccbbbaaa-..-
(PID.TID 0000.0001) //     95 -..-aaabbbcccdddeeeffffggghhhiiiijjjkkkklllmmmmnnnnooopppppqqqqrrrrssssstttttuuuuuuvvvvvvvwwwwwwwxxxxxxxxxxxyyyyyyyyyyyyyyyyyyyyyyyyyyyyyyyyyyyyxxxxxxxxxxxwwwwwwwvvvvvvvuuuuuutttttsssssrrrrqqqqpppppooonnnnmmmmlllkkkkjjjiiiihhhgggffffeeedddcccbbbaaa-..-
(PID.TID 0000.0001) //     94 -..-aaabbbcccdddeeeefffggghhhiiiijjjkkkklllmmmmnnnnooooppppqqqqrrrrrssssstttttuuuuuuvvvvvvwwwwwwwwxxxxxxxxxxxxyyyyyyyyyyyyyyyyyyyyyyyyyyyyyyyyxxxxxxxxxxxxwwwwwwwwvvvvvvuuuuuutttttsssssrrrrrqqqqppppoooonnnnmmmmlllkkkkjjjiiiihhhgggfffeeeedddcccbbbaaa-..-
(PID.TID 0000.0001) //     93 -..-aaabbbcccdddeeeefffggghhhhiiijjjkkkkllllmmmnnnnooooppppqqqqqrrrrssssstttttuuuuuuvvvvvvvwwwwwwwwwxxxxxxxxxxxxyyyyyyyyyyyyyyyyyyyyyyyyyyyyxxxxxxxxxxxxwwwwwwwwwvvvvvvvuuuuuutttttsssssrrrrqqqqqppppoooonnnnmmmllllkkkkjjjiiihhhhgggfffeeeedddcccbbbaaa-..-
(PID.TID 0000.0001) //     92 -..-aaabbbcccdddeeeefffggghhhhiiijjjjkkkllllmmmmnnnoooopppppqqqqrrrrrssssstttttuuuuuuvvvvvvvwwwwwwwwwxxxxxxxxxxxxxxyyyyyyyyyyyyyyyyyyyyyyxxxxxxxxxxxxxxwwwwwwwwwvvvvvvvuuuuuutttttsssssrrrrrqqqqpppppoooonnnmmmmllllkkkjjjjiiihhhhgggfffeeeedddcccbbbaaa-..-
(PID.TID 0000.0001) //     91 -..-aaabbbcccddddeeefffggghhhhiiijjjjkkkllllmmmmnnnnooooppppqqqqrrrrrsssssttttttuuuuuuvvvvvvvwwwwwwwwwxxxxxxxxxxxxxxxxxyyyyyyyyyyyyyyxxxxxxxxxxxxxxxxxwwwwwwwwwvvvvvvvuuuuuuttttttsssssrrrrrqqqqppppoooonnnnmmmmllllkkkjjjjiiihhhhgggfffeeeddddcccbbbaaa-..-
(PID.TID 0000.0001) //     90 -..-aaabbbcccddddeeefffgggghhhiiiijjjkkkklllmmmmnnnnooooppppqqqqqrrrrrssssstttttuuuuuuuvvvvvvvwwwwwwwwwwxxxxxxxxxxxxxxxxxxxxxxxxxxxxxxxxxxxxxxxxxxxxwwwwwwwwwwvvvvvvvuuuuuuutttttsssssrrrrrqqqqqppppoooonnnnmmmmlllkkkkjjjiiiihhhggggfffeeeddddcccbbbaaa-..-
(PID.TID 0000.0001) //     89 -..-aaabbbcccddddeeefffgggghhhiiiijjjkkkkllllmmmnnnnoooooppppqqqqrrrrrsssssttttttuuuuuuuvvvvvvvwwwwwwwwwwwxxxxxxxxxxxxxxxxxxxxxxxxxxxxxxxxxxxxxxxxwwwwwwwwwwwvvvvvvvuuuuuuuttttttsssssrrrrrqqqqppppooooonnnnmmmllllkkkkjjjiiiihhhggggfffeeeddddcccbbbaaa-..-
(PID.TID 0000.0001) //     88 -..-aaabbbccccdddeeeffffggghhhiiiijjjjkkkllllmmmmnnnnooooppppqqqqqrrrrrsssssttttttuuuuuuuvvvvvvvvwwwwwwwwwwxxxxxxxxxxxxxxxxxxxxxxxxxxxxxxxxxxxxxxwwwwwwwwwwvvvvvvvvuuuuuuuttttttsssssrrrrrqqqqqppppoooonnnnmmmmllllkkkjjjjiiiihhhgggffffeeedddccccbbbaaa-..-
(PID.TID 0000.0001) //     87 -..-aaabbbccccdddeeeffffggghhhhiiijjjjkkkllllmmmmnnnnoooopppppqqqqrrrrrssssssttttttuuuuuuuvvvvvvvvwwwwwwwwwwwwxxxxxxxxxxxxxxxxxxxxxxxxxxxxxxxxwwwwwwwwwwwwvvvvvvvvuuuuuuuttttttssssssrrrrrqqqqpppppoooonnnnmmmmllllkkkjjjjiiihhhhgggffffeeedddccccbbbaaa-..-
(PID.TID 0000.0001) //     86 -..-aaabbbccccdddeeeffffggghhhhiiijjjjkkkkllllmmmmnnnnooooppppqqqqqrrrrrssssssttttttuuuuuuuvvvvvvvvwwwwwwwwwwwwwxxxxxxxxxxxxxxxxxxxxxxxxxxxxwwwwwwwwwwwwwvvvvvvvvuuuuuuuttttttssssssrrrrrqqqqqppppoooonnnnmmmmllllkkkkjjjjiiihhhhgggffffeeedddccccbbbaaa-..-
(PID.TID 0000.0001) //     85 -..-aaabbbccccdddeeeefffggghhhhiiiijjjkkkkllllmmmmnnnnoooopppppqqqqqrrrrrssssstttttttuuuuuuuvvvvvvvvvwwwwwwwwwwwwwwwxxxxxxxxxxxxxxxxxxxxwwwwwwwwwwwwwwwvvvvvvvvvuuuuuuutttttttsssssrrrrrqqqqqpppppoooonnnnmmmmllllkkkkjjjiiiihhhhgggfffeeeedddccccbbbaaa-..-
(PID.TID 0000.0001) //     84 -..-aaabbbccccdddeeeefffgggghhhiiiijjjjkkkllllmmmmnnnnoooooppppqqqqqrrrrrsssssstttttttuuuuuuuvvvvvvvvvvwwwwwwwwwwwwwwwwwwwxxxxxxxxwwwwwwwwwwwwwwwwwwwvvvvvvvvvvuuuuuuutttttttssssssrrrrrqqqqqppppooooonnnnmmmmllllkkkjjjjiiiihhhggggfffeeeedddccccbbbaaa-..-
(PID.TID 0000.0001) //     83 -..-aaabbbccccdddeeeefffgggghhhiiiijjjjkkkkllllmmmmnnnnoooopppppqqqqqrrrrrsssssstttttttuuuuuuuvvvvvvvvvvvwwwwwwwwwwwwwwwwwwwwwwwwwwwwwwwwwwwwwwwwwwvvvvvvvvvvvuuuuuuutttttttssssssrrrrrqqqqqpppppoooonnnnmmmmllllkkkkjjjjiiiihhhggggfffeeeedddccccbbbaaa-..-
(PID.TID 0000.0001) //     82 -..-aaabbbbcccdddeeeefffgggghhhhiiijjjjkkkkllllmmmmnnnnooooopppppqqqqqrrrrrsssssstttttttuuuuuuuuvvvvvvvvvvvwwwwwwwwwwwwwwwwwwwwwwwwwwwwwwwwwwwwwwvvvvvvvvvvvuuuuuuuutttttttssssssrrrrrqqqqqpppppooooonnnnmmmmllllkkkkjjjjiiihhhhggggfffeeeedddcccbbbbaaa-..-
(PID.TID 0000.0001) //     81 -..-aaabbbbcccddddeeeffffggghhhhiiiijjjkkkkllllmmmmmnnnnoooopppppqqqqqrrrrrrsssssstttttttuuuuuuuuvvvvvvvvvvvvwwwwwwwwwwwwwwwwwwwwwwwwwwwwwwwwwwvvvvvvvvvvvvuuuuuuuutttttttssssssrrrrrrqqqqqpppppoooonnnnmmmmmllllkkkkjjjiiiihhhhgggffffeeeddddcccbbbbaaa-..-
(PID.TID 0000.0001) //     80 -..-aaabbbbcccddddeeeffffggghhhhiiiijjjjkkkkllllmmmmnnnnooooopppppqqqqqrrrrrrsssssstttttttuuuuuuuuuvvvvvvvvvvvvvvwwwwwwwwwwwwwwwwwwwwwwwwwwvvvvvvvvvvvvvvuuuuuuuuutttttttssssssrrrrrrqqqqqpppppooooonnnnmmmmllllkkkkjjjjiiiihhhhgggffffeeeddddcccbbbbaaa-..-
(PID.TID 0000.0001) //     79 -..-aaabbbbcccddddeeeffffgggghhhiiiijjjjkkkkllllmmmmnnnnnoooooppppqqqqqqrrrrrrsssssstttttttuuuuuuuuuuvvvvvvvvvvvvvvvvwwwwwwwwwwwwwwwwwwvvvvvvvvvvvvvvvvuuuuuuuuuutttttttssssssrrrrrrqqqqqqppppooooonnnnnmmmmllllkkkkjjjjiiiihhhggggffffeeeddddcccbbbbaaa-..-
(PID.TID 0000.0001) //     78 -..-aaabbbbcccddddeeeefffgggghhhhiiiijjjkkkklllllmmmmnnnnooooopppppqqqqqqrrrrrsssssssttttttttuuuuuuuuuuvvvvvvvvvvvvvvvvvvvvvvvvvvvvvvvvvvvvvvvvvvvvvvuuuuuuuuuuttttttttsssssssrrrrrqqqqqqpppppooooonnnnmmmmlllllkkkkjjjiiiihhhhggggfffeeeeddddcccbbbbaaa-..-
(PID.TID 0000.0001) //     77 -..-aaabbbbcccddddeeeefffgggghhhhiiiijjjjkkkkllllmmmmnnnnnooooopppppqqqqqrrrrrrsssssssttttttttuuuuuuuuuuuvvvvvvvvvvvvvvvvvvvvvvvvvvvvvvvvvvvvvvvvvvuuuuuuuuuuuttttttttsssssssrrrrrrqqqqqpppppooooonnnnnmmmmllllkkkkjjjjiiiihhhhggggfffeeeeddddcccbbbbaaa-..-
(PID.TID 0000.0001) //     76 -..-aaabbbbccccdddeeeeffffggghhhhiiiijjjjkkkklllllmmmmnnnnnooooopppppqqqqqrrrrrrrsssssssttttttttuuuuuuuuuuuuvvvvvvvvvvvvvvvvvvvvvvvvvvvvvvvvvvvvuuuuuuuuuuuuttttttttsssssssrrrrrrrqqqqqpppppooooonnnnnmmmmlllllkkkkjjjjiiiihhhhgggffffeeeedddccccbbbbaaa-..-
(PID.TID 0000.0001) //     75 -..-aaabbbbccccdddeeeeffffgggghhhhiiiijjjjkkkkllllmmmmmnnnnoooooppppppqqqqqrrrrrrrssssssstttttttttuuuuuuuuuuuuuuvvvvvvvvvvvvvvvvvvvvvvvvvvvvuuuuuuuuuuuuuutttttttttsssssssrrrrrrrqqqqqppppppooooonnnnmmmmmllllkkkkjjjjiiiihhhhggggffffeeeedddccccbbbbaaa-..-
(PID.TID 0000.0001) //     74 -..-aaaabbbccccddddeeeffffgggghhhhiiiijjjjkkkklllllmmmmnnnnnooooopppppqqqqqqrrrrrrrsssssssttttttttttuuuuuuuuuuuuuuuuvvvvvvvvvvvvvvvvvvvvuuuuuuuuuuuuuuuuttttttttttsssssssrrrrrrrqqqqqqpppppooooonnnnnmmmmlllllkkkkjjjjiiiihhhhggggffffeeeddddccccbbbaaaa-..-
(PID.TID 0000.0001) //     73 -..-aaaabbbccccddddeeeffffgggghhhhiiiijjjjkkkkkllllmmmmmnnnnnooooopppppqqqqqqrrrrrrrssssssssttttttttttuuuuuuuuuuuuuuuuuuuuuuuuuuuuuuuuuuuuuuuuuuuuuuuuttttttttttssssssssrrrrrrrqqqqqqpppppooooonnnnnmmmmmllllkkkkkjjjjiiiihhhhggggffffeeeddddccccbbbaaaa-..-
(PID.TID 0000.0001) //     72 -..-aaaabbbccccddddeeeeffffgggghhhhiiiijjjjkkkklllllmmmmnnnnnoooooopppppqqqqqqrrrrrrrssssssssstttttttttttuuuuuuuuuuuuuuuuuuuuuuuuuuuuuuuuuuuuuuuuuutttttttttttsssssssssrrrrrrrqqqqqqpppppoooooonnnnnmmmmlllllkkkkjjjjiiiihhhhggggffffeeeeddddccccbbbaaaa-..-
(PID.TID 0000.0001) //     71 -..-aaaabbbccccddddeeeeffffgggghhhhiiiijjjjkkkkkllllmmmmmnnnnnoooooppppppqqqqqqqrrrrrrrsssssssssttttttttttttuuuuuuuuuuuuuuuuuuuuuuuuuuuuuuuuuuuuttttttttttttsssssssssrrrrrrrqqqqqqqppppppooooonnnnnmmmmmllllkkkkkjjjjiiiihhhhggggffffeeeeddddccccbbbaaaa-..-
(PID.TID 0000.0001) //     70 -..-aaaabbbbcccddddeeeeffffgggghhhhiiiijjjjjkkkklllllmmmmmnnnnnoooooppppppqqqqqqqrrrrrrrssssssssssttttttttttttttuuuuuuuuuuuuuuuuuuuuuuuuuuuuttttttttttttttssssssssssrrrrrrrqqqqqqqppppppooooonnnnnmmmmmlllllkkkkjjjjjiiiihhhhggggffffeeeeddddcccbbbbaaaa-..-
(PID.TID 0000.0001) //     69 -..-aaaabbbbccccdddeeeeffffgggghhhhhiiiijjjjkkkkklllllmmmmnnnnnnoooooppppppqqqqqqqrrrrrrrrssssssssssttttttttttttttttttuuuuuuuuuuuuuuuuttttttttttttttttttssssssssssrrrrrrrrqqqqqqqppppppooooonnnnnnmmmmlllllkkkkkjjjjiiiihhhhhggggffffeeeedddccccbbbbaaaa-..-
(PID.TID 0000.0001) //     68 -..-aaaabbbbccccddddeeeeffffgggghhhhiiiijjjjjkkkklllllmmmmmnnnnnnooooopppppppqqqqqqqrrrrrrrrsssssssssssttttttttttttttttttttttttttttttttttttttttttttttsssssssssssrrrrrrrrqqqqqqqpppppppooooonnnnnnmmmmmlllllkkkkjjjjjiiiihhhhggggffffeeeeddddccccbbbbaaaa-..-
(PID.TID 0000.0001) //     67 -..-aaaabbbbccccddddeeeeffffgggghhhhiiiiijjjjkkkkklllllmmmmmnnnnnoooooopppppppqqqqqqqrrrrrrrrrssssssssssssttttttttttttttttttttttttttttttttttttttttssssssssssssrrrrrrrrrqqqqqqqpppppppoooooonnnnnmmmmmlllllkkkkkjjjjiiiiihhhhggggffffeeeeddddccccbbbbaaaa-..-
(PID.TID 0000.0001) //     66 -..-aaaabbbbccccddddeeeeffffggggghhhhiiiijjjjjkkkkklllllmmmmmnnnnnoooooopppppppqqqqqqqqrrrrrrrrrssssssssssssssttttttttttttttttttttttttttttttttssssssssssssssrrrrrrrrrqqqqqqqqpppppppoooooonnnnnmmmmmlllllkkkkkjjjjjiiiihhhhgggggffffeeeeddddccccbbbbaaaa-..-
(PID.TID 0000.0001) //     65 -..-aaaabbbbccccddddeeeefffffgggghhhhiiiiijjjjkkkkklllllmmmmmmnnnnnoooooooppppppqqqqqqqqrrrrrrrrrrsssssssssssssssssttttttttttttttttttttttsssssssssssssssssrrrrrrrrrrqqqqqqqqppppppooooooonnnnnmmmmmmlllllkkkkkjjjjiiiiihhhhggggfffffeeeeddddccccbbbbaaaa-..-
(PID.TID 0000.0001) //     64 -..-aaaabbbbccccddddeeeeeffffgggghhhhhiiiijjjjjkkkkklllllmmmmmmnnnnnooooooopppppppqqqqqqqqrrrrrrrrrrrssssssssssssssssssssssssssssssssssssssssssssssssssrrrrrrrrrrrqqqqqqqqpppppppooooooonnnnnmmmmmmlllllkkkkkjjjjjiiiihhhhhggggffffeeeeeddddccccbbbbaaaa-..-
(PID.TID 0000.0001) //     63 -..-aaaabbbbccccdddddeeeeffffggggghhhhiiiiijjjjjkkkkklllllmmmmmmnnnnnnooooooppppppppqqqqqqqqrrrrrrrrrrrrssssssssssssssssssssssssssssssssssssssssssssrrrrrrrrrrrrqqqqqqqqppppppppoooooonnnnnnmmmmmmlllllkkkkkjjjjjiiiiihhhhgggggffffeeeedddddccccbbbbaaaa-..-
(PID.TID 0000.0001) //     62 -..-aaaabbbbcccccddddeeeefffffgggghhhhhiiiijjjjjkkkkkllllllmmmmmmnnnnnnooooooopppppppqqqqqqqqqqrrrrrrrrrrrrrssssssssssssssssssssssssssssssssssssrrrrrrrrrrrrrqqqqqqqqqqpppppppooooooonnnnnnmmmmmmllllllkkkkkjjjjjiiiihhhhhggggfffffeeeeddddcccccbbbbaaaa-..-
(PID.TID 0000.0001) //     61 -..-aaaabbbbbccccddddeeeeeffffggggghhhhiiiiijjjjjkkkkkllllllmmmmmmnnnnnnoooooooppppppppqqqqqqqqqqrrrrrrrrrrrrrrrrrssssssssssssssssssssssssrrrrrrrrrrrrrrrrrqqqqqqqqqqppppppppooooooonnnnnnmmmmmmllllllkkkkkjjjjjiiiiihhhhgggggffffeeeeeddddccccbbbbbaaaa-..-
(PID.TID 0000.0001) //     60 -..-aaaabbbbbccccddddeeeeeffffggggghhhhhiiiiijjjjjkkkkkllllllmmmmmmnnnnnnooooooooppppppppqqqqqqqqqqqrrrrrrrrrrrrrrrrrrrrrrrrrrrrrrrrrrrrrrrrrrrrrrrrrrrrqqqqqqqqqqqppppppppoooooooonnnnnnmmmmmmllllllkkkkkjjjjjiiiiihhhhhgggggffffeeeeeddddccccbbbbbaaaa-..-
(PID.TID 0000.0001) //     59 -..-aaaaabbbbccccdddddeeeefffffggggghhhhiiiiijjjjjkkkkkkllllllmmmmmmnnnnnnnooooooopppppppppqqqqqqqqqqqqqrrrrrrrrrrrrrrrrrrrrrrrrrrrrrrrrrrrrrrrrrrrrqqqqqqqqqqqqqpppppppppooooooonnnnnnnmmmmmmllllllkkkkkkjjjjjiiiiihhhhgggggfffffeeeedddddccccbbbbaaaaa-..-
(PID.TID 0000.0001) //     58 -..-aaaaabbbbcccccddddeeeeeffffggggghhhhhiiiiijjjjjkkkkkkllllllmmmmmmnnnnnnnooooooooppppppppppqqqqqqqqqqqqqqrrrrrrrrrrrrrrrrrrrrrrrrrrrrrrrrrrrrqqqqqqqqqqqqqqppppppppppoooooooonnnnnnnmmmmmmllllllkkkkkkjjjjjiiiiihhhhhgggggffffeeeeeddddcccccbbbbaaaaa-..-
(PID.TID 0000.0001) //     57 -..-aaaaabbbbcccccddddeeeeefffffggggghhhhhiiiiijjjjjkkkkkkllllllmmmmmmnnnnnnnnoooooooopppppppppppqqqqqqqqqqqqqqqqqrrrrrrrrrrrrrrrrrrrrrrrrqqqqqqqqqqqqqqqqqpppppppppppoooooooonnnnnnnnmmmmmmllllllkkkkkkjjjjjiiiiihhhhhgggggfffffeeeeeddddcccccbbbbaaaaa-..-
(PID.TID 0000.0001) //     56 -..-aaaaabbbbcccccdddddeeeefffffggggghhhhhiiiiijjjjjjkkkkkkllllllmmmmmmmnnnnnnnoooooooooppppppppppppqqqqqqqqqqqqqqqqqqqqqqqqqqqqqqqqqqqqqqqqqqqqqqqqqqqqppppppppppppooooooooonnnnnnnmmmmmmmllllllkkkkkkjjjjjjiiiiihhhhhgggggfffffeeeedddddcccccbbbbaaaaa-..-
(PID.TID 0000.0001) //     55 -..-aaaaabbbbbccccdddddeeeeefffffggggghhhhhiiiiijjjjjjkkkkkkllllllmmmmmmmnnnnnnnnoooooooooopppppppppppppqqqqqqqqqqqqqqqqqqqqqqqqqqqqqqqqqqqqqqqqqqqqpppppppppppppoooooooooonnnnnnnnmmmmmmmllllllkkkkkkjjjjjjiiiiihhhhhgggggfffffeeeeedddddccccbbbbbaaaaa-..-
(PID.TID 0000.0001) //     54 -..-aaaaabbbbbccccdddddeeeeefffffggggghhhhhhiiiiijjjjjjkkkkkklllllllmmmmmmmnnnnnnnnoooooooooopppppppppppppppqqqqqqqqqqqqqqqqqqqqqqqqqqqqqqqqqqqqpppppppppppppppoooooooooonnnnnnnnmmmmmmmlllllllkkkkkkjjjjjjiiiiihhhhhhgggggfffffeeeeedddddccccbbbbbaaaaa-..-
(PID.TID 0000.0001) //     53 -..-aaaaabbbbbcccccdddddeeeeefffffggggghhhhhiiiiiijjjjjjkkkkkklllllllmmmmmmmmnnnnnnnnooooooooooopppppppppppppppppppqqqqqqqqqqqqqqqqqqqqqqpppppppppppppppppppooooooooooonnnnnnnnmmmmmmmmlllllllkkkkkkjjjjjjiiiiiihhhhhgggggfffffeeeeedddddcccccbbbbbaaaaa-..-
(PID.TID 0000.0001) //     52 -..-aaaaabbbbbcccccdddddeeeeefffffgggggghhhhhiiiiiijjjjjjkkkkkkllllllllmmmmmmmnnnnnnnnnnooooooooooooppppppppppppppppppppppppppppppppppppppppppppppppppppoooooooooooonnnnnnnnnnmmmmmmmllllllllkkkkkkjjjjjjiiiiiihhhhhggggggfffffeeeeedddddcccccbbbbbaaaaa-..-
(PID.TID 0000.0001) //     51 -..-aaaaabbbbbcccccdddddeeeeeefffffggggghhhhhhiiiiiijjjjjjkkkkkkklllllllmmmmmmmmnnnnnnnnnnooooooooooooooppppppppppppppppppppppppppppppppppppppppppppoooooooooooooonnnnnnnnnnmmmmmmmmlllllllkkkkkkkjjjjjjiiiiiihhhhhhgggggfffffeeeeeedddddcccccbbbbbaaaaa-..-
(PID.TID 0000.0001) //     50 -..--aaaaabbbbbcccccdddddeeeeefffffgggggghhhhhhiiiiiijjjjjjkkkkkkkllllllllmmmmmmmmmnnnnnnnnnnoooooooooooooooooppppppppppppppppppppppppppppppppooooooooooooooooonnnnnnnnnnmmmmmmmmmllllllllkkkkkkkjjjjjjiiiiiihhhhhhggggggfffffeeeeedddddcccccbbbbbaaaaa--..-
(PID.TID 0000.0001) //     49 -..--aaaaabbbbbcccccdddddeeeeeefffffgggggghhhhhhiiiiiijjjjjjkkkkkkkkllllllllmmmmmmmmmnnnnnnnnnnnnooooooooooooooooooooooppppppppppppppoooooooooooooooooooooonnnnnnnnnnnnmmmmmmmmmllllllllkkkkkkkkjjjjjjiiiiiihhhhhhggggggfffffeeeeeedddddcccccbbbbbaaaaa--..-
(PID.TID 0000.0001) //     48 -..--aaaaabbbbbcccccddddddeeeeeffffffgggggghhhhhhiiiiiijjjjjjjkkkkkkklllllllllmmmmmmmmmmnnnnnnnnnnnnnoooooooooooooooooooooooooooooooooooooooooooooooooonnnnnnnnnnnnnmmmmmmmmmmlllllllllkkkkkkkjjjjjjjiiiiiihhhhhhggggggffffffeeeeeddddddcccccbbbbbaaaaa--..-
(PID.TID 0000.0001) //     47 -..--aaaaabbbbbccccccdddddeeeeeefffffgggggghhhhhhhiiiiiijjjjjjjkkkkkkkklllllllllmmmmmmmmmmnnnnnnnnnnnnnnnnoooooooooooooooooooooooooooooooooooooooonnnnnnnnnnnnnnnnmmmmmmmmmmlllllllllkkkkkkkkjjjjjjjiiiiiihhhhhhhggggggfffffeeeeeedddddccccccbbbbbaaaaa--..-
(PID.TID 0000.0001) //     46 -..--aaaaabbbbbbcccccddddddeeeeeffffffgggggghhhhhhhiiiiiijjjjjjjjkkkkkkkklllllllllmmmmmmmmmmmmnnnnnnnnnnnnnnnnnnnoooooooooooooooooooooooooonnnnnnnnnnnnnnnnnnnmmmmmmmmmmmmlllllllllkkkkkkkkjjjjjjjjiiiiiihhhhhhhggggggffffffeeeeeddddddcccccbbbbbbaaaaa--..-
(PID.TID 0000.0001) //     45 -..--aaaaabbbbbbcccccddddddeeeeeeffffffgggggghhhhhhhiiiiiiijjjjjjjkkkkkkkkkllllllllllmmmmmmmmmmmmmnnnnnnnnnnnnnnnnnnnnnnnnnnnnnnnnnnnnnnnnnnnnnnnnnnnnnnnnmmmmmmmmmmmmmllllllllllkkkkkkkkkjjjjjjjiiiiiiihhhhhhhggggggffffffeeeeeeddddddcccccbbbbbbaaaaa--..-
(PID.TID 0000.0001) //     44 -..--aaaaabbbbbbccccccddddddeeeeeeffffffgggggghhhhhhhiiiiiiijjjjjjjjkkkkkkkkklllllllllllmmmmmmmmmmmmmmnnnnnnnnnnnnnnnnnnnnnnnnnnnnnnnnnnnnnnnnnnnnnnnnmmmmmmmmmmmmmmlllllllllllkkkkkkkkkjjjjjjjjiiiiiiihhhhhhhggggggffffffeeeeeeddddddccccccbbbbbbaaaaa--..-
(PID.TID 0000.0001) //     43 -..--aaaaaabbbbbccccccddddddeeeeeefffffffgggggghhhhhhhiiiiiiiijjjjjjjjkkkkkkkkkllllllllllllmmmmmmmmmmmmmmmmmnnnnnnnnnnnnnnnnnnnnnnnnnnnnnnnnnnnnmmmmmmmmmmmmmmmmmllllllllllllkkkkkkkkkjjjjjjjjiiiiiiiihhhhhhhggggggfffffffeeeeeeddddddccccccbbbbbaaaaaa--..-
(PID.TID 0000.0001) //     42 -..--aaaaaabbbbbbccccccddddddeeeeeefffffffgggggghhhhhhhhiiiiiiijjjjjjjjjkkkkkkkkkklllllllllllllmmmmmmmmmmmmmmmmmmmmmmmmmnnnnnnnnnnnnmmmmmmmmmmmmmmmmmmmmmmmmmlllllllllllllkkkkkkkkkkjjjjjjjjjiiiiiiihhhhhhhhggggggfffffffeeeeeeddddddccccccbbbbbbaaaaaa--..-
(PID.TID 0000.0001) //     41 -..--aaaaaabbbbbbccccccddddddeeeeeeefffffffggggggghhhhhhhiiiiiiiijjjjjjjjjkkkkkkkkkkkllllllllllllllmmmmmmmmmmmmmmmmmmmmmmmmmmmmmmmmmmmmmmmmmmmmmmmmmmmmmmllllllllllllllkkkkkkkkkkkjjjjjjjjjiiiiiiiihhhhhhhgggggggfffffffeeeeeeeddddddccccccbbbbbbaaaaaa--..-
(PID.TID 0000.0001) //     40 -..--aaaaaabbbbbbcccccccddddddeeeeeeefffffffggggggghhhhhhhhiiiiiiiijjjjjjjjjjkkkkkkkkkkklllllllllllllllllmmmmmmmmmmmmmmmmmmmmmmmmmmmmmmmmmmmmmmmmmmlllllllllllllllllkkkkkkkkkkkjjjjjjjjjjiiiiiiiihhhhhhhhgggggggfffffffeeeeeeeddddddcccccccbbbbbbaaaaaa--..-
(PID.TID 0000.0001) //     39 -..--aaaaaabbbbbbbccccccdddddddeeeeeeefffffffggggggghhhhhhhhiiiiiiiiijjjjjjjjjjkkkkkkkkkkkkkllllllllllllllllllllllmmmmmmmmmmmmmmmmmmmmmmmmllllllllllllllllllllllkkkkkkkkkkkkkjjjjjjjjjjiiiiiiiiihhhhhhhhgggggggfffffffeeeeeeedddddddccccccbbbbbbbaaaaaa--..-
(PID.TID 0000.0001) //     38 -..--aaaaaaabbbbbbcccccccddddddeeeeeeeffffffffgggggggghhhhhhhhiiiiiiiiijjjjjjjjjjjkkkkkkkkkkkkkkkllllllllllllllllllllllllllllllllllllllllllllllllllllllllllkkkkkkkkkkkkkkkjjjjjjjjjjjiiiiiiiiihhhhhhhhggggggggffffffffeeeeeeeddddddcccccccbbbbbbaaaaaaa--..-
(PID.TID 0000.0001) //     37 -..--aaaaaaabbbbbbbccccccdddddddeeeeeeeffffffffgggggggghhhhhhhhhiiiiiiiiiijjjjjjjjjjjjkkkkkkkkkkkkkkkkllllllllllllllllllllllllllllllllllllllllllllllllkkkkkkkkkkkkkkkkjjjjjjjjjjjjiiiiiiiiiihhhhhhhhhggggggggffffffffeeeeeeedddddddccccccbbbbbbbaaaaaaa--..-
(PID.TID 0000.0001) //     36 -..--aaaaaaabbbbbbbcccccccdddddddeeeeeeeefffffffggggggggghhhhhhhhhiiiiiiiiiiijjjjjjjjjjjjjkkkkkkkkkkkkkkkkkkkkllllllllllllllllllllllllllllllllkkkkkkkkkkkkkkkkkkkkjjjjjjjjjjjjjiiiiiiiiiiihhhhhhhhhgggggggggfffffffeeeeeeeedddddddcccccccbbbbbbbaaaaaaa--..-
(PID.TID 0000.0001) //     35 -..---aaaaaabbbbbbbccccccccdddddddeeeeeeeeffffffffggggggggghhhhhhhhhiiiiiiiiiiiijjjjjjjjjjjjjjkkkkkkkkkkkkkkkkkkkkkkkkkkkkkkkkkkkkkkkkkkkkkkkkkkkkkkkkkkkkkkkkjjjjjjjjjjjjjjiiiiiiiiiiiihhhhhhhhhgggggggggffffffffeeeeeeeedddddddccccccccbbbbbbbaaaaaa---..-
(PID.TID 0000.0001) //     34 -..---aaaaaaabbbbbbbcccccccddddddddeeeeeeeeffffffffgggggggggghhhhhhhhhhiiiiiiiiiiiijjjjjjjjjjjjjjjjjkkkkkkkkkkkkkkkkkkkkkkkkkkkkkkkkkkkkkkkkkkkkkkkkkkkkjjjjjjjjjjjjjjjjjiiiiiiiiiiiihhhhhhhhhhggggggggggffffffffeeeeeeeeddddddddcccccccbbbbbbbaaaaaaa---..-
(PID.TID 0000.0001) //     33 -..---aaaaaaabbbbbbbccccccccddddddddeeeeeeeefffffffffgggggggggghhhhhhhhhhhiiiiiiiiiiiiijjjjjjjjjjjjjjjjjjjjkkkkkkkkkkkkkkkkkkkkkkkkkkkkkkkkkkkkkkjjjjjjjjjjjjjjjjjjjjiiiiiiiiiiiiihhhhhhhhhhhggggggggggfffffffffeeeeeeeeddddddddccccccccbbbbbbbaaaaaaa---..-
(PID.TID 0000.0001) //     32 -..---aaaaaaabbbbbbbbccccccccddddddddeeeeeeeeefffffffffgggggggggghhhhhhhhhhhhiiiiiiiiiiiiiiijjjjjjjjjjjjjjjjjjjjjjjjjjjjjjjjjjjjjjjjjjjjjjjjjjjjjjjjjjjjjjjjjjjjiiiiiiiiiiiiiiihhhhhhhhhhhhggggggggggfffffffffeeeeeeeeeddddddddccccccccbbbbbbbbaaaaaaa---..-
(PID.TID 0000.0001) //     31 -..---aaaaaaaabbbbbbbbccccccccddddddddeeeeeeeeeffffffffffggggggggggghhhhhhhhhhhhiiiiiiiiiiiiiiiiijjjjjjjjjjjjjjjjjjjjjjjjjjjjjjjjjjjjjjjjjjjjjjjjjjjjjjjjjjiiiiiiiiiiiiiiiiihhhhhhhhhhhhgggggggggggffffffffffeeeeeeeeeddddddddccccccccbbbbbbbbaaaaaaaa---..-
(PID.TID 0000.0001) //     30 -..---aaaaaaaabbbbbbbbcccccccccddddddddeeeeeeeeeeffffffffffggggggggggghhhhhhhhhhhhhhiiiiiiiiiiiiiiiiiiiiijjjjjjjjjjjjjjjjjjjjjjjjjjjjjjjjjjjjjjjjjjiiiiiiiiiiiiiiiiiiiiihhhhhhhhhhhhhhgggggggggggffffffffffeeeeeeeeeeddddddddcccccccccbbbbbbbbaaaaaaaa---..-
(PID.TID 0000.0001) //     29 -..---aaaaaaaaabbbbbbbbcccccccccdddddddddeeeeeeeeeeffffffffffggggggggggggghhhhhhhhhhhhhhhiiiiiiiiiiiiiiiiiiiiiiiiiiiiiiijjjjjjjjjjjjiiiiiiiiiiiiiiiiiiiiiiiiiiiiiiihhhhhhhhhhhhhhhgggggggggggggffffffffffeeeeeeeeeedddddddddcccccccccbbbbbbbbaaaaaaaaa---..-
(PID.TID 0000.0001) //     28 -..---aaaaaaaaabbbbbbbbbcccccccccdddddddddeeeeeeeeeeefffffffffffggggggggggggghhhhhhhhhhhhhhhhhhiiiiiiiiiiiiiiiiiiiiiiiiiiiiiiiiiiiiiiiiiiiiiiiiiiiiiiiiiiiiiihhhhhhhhhhhhhhhhhhgggggggggggggfffffffffffeeeeeeeeeeedddddddddcccccccccbbbbbbbbbaaaaaaaaa---..-
(PID.TID 0000.0001) //     27 -..----aaaaaaaabbbbbbbbbbcccccccccddddddddddeeeeeeeeeeeffffffffffffgggggggggggggghhhhhhhhhhhhhhhhhhhhhhiiiiiiiiiiiiiiiiiiiiiiiiiiiiiiiiiiiiiiiiiiiiiihhhhhhhhhhhhhhhhhhhhhhggggggggggggggffffffffffffeeeeeeeeeeeddddddddddcccccccccbbbbbbbbbbaaaaaaaa----..-
(PID.TID 0000.0001) //     26 -..----aaaaaaaaabbbbbbbbbccccccccccdddddddddddeeeeeeeeeeefffffffffffffgggggggggggggggghhhhhhhhhhhhhhhhhhhhhhhhhhhhhhiiiiiiiiiiiiiiiiiiiihhhhhhhhhhhhhhhhhhhhhhhhhhhhhhggggggggggggggggfffffffffffffeeeeeeeeeeedddddddddddccccccccccbbbbbbbbbaaaaaaaaa----..-
(PID.TID 0000.0001) //     25 -..----aaaaaaaaaabbbbbbbbbcccccccccccdddddddddddeeeeeeeeeeeeffffffffffffffgggggggggggggggggghhhhhhhhhhhhhhhhhhhhhhhhhhhhhhhhhhhhhhhhhhhhhhhhhhhhhhhhhhhhhhhhhhhhggggggggggggggggggffffffffffffffeeeeeeeeeeeedddddddddddcccccccccccbbbbbbbbbaaaaaaaaaa----..-
(PID.TID 0000.0001) //     24 -..----aaaaaaaaaabbbbbbbbbbcccccccccccddddddddddddeeeeeeeeeeeeefffffffffffffffgggggggggggggggggggggghhhhhhhhhhhhhhhhhhhhhhhhhhhhhhhhhhhhhhhhhhhhhhhhhhhhggggggggggggggggggggggfffffffffffffffeeeeeeeeeeeeeddddddddddddcccccccccccbbbbbbbbbbaaaaaaaaaa----..-
(PID.TID 0000.0001) //     23 -..----aaaaaaaaaaabbbbbbbbbbbcccccccccccddddddddddddeeeeeeeeeeeeeefffffffffffffffffggggggggggggggggggggggggggggggghhhhhhhhhhhhhhhhhhhhhhhhgggggggggggggggggggggggggggggggfffffffffffffffffeeeeeeeeeeeeeeddddddddddddcccccccccccbbbbbbbbbbbaaaaaaaaaaa----..-
(PID.TID 0000.0001) //     22 -..-----aaaaaaaaaaabbbbbbbbbbbccccccccccccdddddddddddddeeeeeeeeeeeeeeeffffffffffffffffffffggggggggggggggggggggggggggggggggggggggggggggggggggggggggggggggggggggggggffffffffffffffffffffeeeeeeeeeeeeeeedddddddddddddccccccccccccbbbbbbbbbbbaaaaaaaaaaa-----..-
(PID.TID 0000.0001) //     21 -..-----aaaaaaaaaaabbbbbbbbbbbbcccccccccccccddddddddddddddeeeeeeeeeeeeeeeeffffffffffffffffffffffffggggggggggggggggggggggggggggggggggggggggggggggggggggggggffffffffffffffffffffffffeeeeeeeeeeeeeeeeddddddddddddddcccccccccccccbbbbbbbbbbbbaaaaaaaaaaa-----..-
(PID.TID 0000.0001) //     20 -..-----aaaaaaaaaaaabbbbbbbbbbbbbcccccccccccccdddddddddddddddeeeeeeeeeeeeeeeeeeefffffffffffffffffffffffffffffffffggggggggggggggggggggggggggfffffffffffffffffffffffffffffffffeeeeeeeeeeeeeeeeeeedddddddddddddddcccccccccccccbbbbbbbbbbbbbaaaaaaaaaaaa-----..-
(PID.TID 0000.0001) //     19 -..-----aaaaaaaaaaaaabbbbbbbbbbbbbcccccccccccccccddddddddddddddddeeeeeeeeeeeeeeeeeeeeeeffffffffffffffffffffffffffffffffffffffffffffffffffffffffffffffffffffffffffffffeeeeeeeeeeeeeeeeeeeeeeddddddddddddddddcccccccccccccccbbbbbbbbbbbbbaaaaaaaaaaaaa-----..-
(PID.TID 0000.0001) //     18 -..------aaaaaaaaaaaaabbbbbbbbbbbbbbccccccccccccccccddddddddddddddddddeeeeeeeeeeeeeeeeeeeeeeeeeeffffffffffffffffffffffffffffffffffffffffffffffffffffffffffffeeeeeeeeeeeeeeeeeeeeeeeeeeddddddddddddddddddccccccccccccccccbbbbbbbbbbbbbbaaaaaaaaaaaaa------..-
(PID.TID 0000.0001) //     17 -..------aaaaaaaaaaaaaaabbbbbbbbbbbbbbbccccccccccccccccdddddddddddddddddddddeeeeeeeeeeeeeeeeeeeeeeeeeeeeeeeeeeeffffffffffffffffffffffffffffffeeeeeeeeeeeeeeeeeeeeeeeeeeeeeeeeeeedddddddddddddddddddddccccccccccccccccbbbbbbbbbbbbbbbaaaaaaaaaaaaaaa------..-
(PID.TID 0000.0001) //     16 -..-------aaaaaaaaaaaaaaabbbbbbbbbbbbbbbbcccccccccccccccccccdddddddddddddddddddddddeeeeeeeeeeeeeeeeeeeeeeeeeeeeeeeeeeeeeeeeeeeeeeeeeeeeeeeeeeeeeeeeeeeeeeeeeeeeeeeeeeeeeedddddddddddddddddddddddcccccccccccccccccccbbbbbbbbbbbbbbbbaaaaaaaaaaaaaaa-------..-
(PID.TID 0000.0001) //     15 -..-------aaaaaaaaaaaaaaaaabbbbbbbbbbbbbbbbbccccccccccccccccccccdddddddddddddddddddddddddddddeeeeeeeeeeeeeeeeeeeeeeeeeeeeeeeeeeeeeeeeeeeeeeeeeeeeeeeeeeeeeeeeeedddddddddddddddddddddddddddddccccccccccccccccccccbbbbbbbbbbbbbbbbbaaaaaaaaaaaaaaaaa-------..-
(PID.TID 0000.0001) //     14 -..--------aaaaaaaaaaaaaaaaabbbbbbbbbbbbbbbbbbbbcccccccccccccccccccccccddddddddddddddddddddddddddddddddddddddddeeeeeeeeeeeeeeeeeeeeeeeeeeeeeeddddddddddddddddddddddddddddddddddddddddcccccccccccccccccccccccbbbbbbbbbbbbbbbbbbbbaaaaaaaaaaaaaaaaa--------..-
(PID.TID 0000.0001) //     13 -..--------aaaaaaaaaaaaaaaaaaaabbbbbbbbbbbbbbbbbbbbbccccccccccccccccccccccccccddddddddddddddddddddddddddddddddddddddddddddddddddddddddddddddddddddddddddddddddddddddddddddddddccccccccccccccccccccccccccbbbbbbbbbbbbbbbbbbbbbaaaaaaaaaaaaaaaaaaaa--------..-
(PID.TID 0000.0001) //     12 -..---------aaaaaaaaaaaaaaaaaaaaabbbbbbbbbbbbbbbbbbbbbbbbcccccccccccccccccccccccccccccccccddddddddddddddddddddddddddddddddddddddddddddddddddddddddddddddddddddddddcccccccccccccccccccccccccccccccccbbbbbbbbbbbbbbbbbbbbbbbbaaaaaaaaaaaaaaaaaaaaa---------..-
(PID.TID 0000.0001) //     11 -..----------aaaaaaaaaaaaaaaaaaaaaaabbbbbbbbbbbbbbbbbbbbbbbbbbbcccccccccccccccccccccccccccccccccccccccccccccccddddddddddddddddddddddddddddddddcccccccccccccccccccccccccccccccccccccccccccccccbbbbbbbbbbbbbbbbbbbbbbbbbbbaaaaaaaaaaaaaaaaaaaaaaa----------..-
(PID.TID 0000.0001) //     10 -..-----------aaaaaaaaaaaaaaaaaaaaaaaaaabbbbbbbbbbbbbbbbbbbbbbbbbbbbbbbbccccccccccccccccccccccccccccccccccccccccccccccccccccccccccccccccccccccccccccccccccccccccccccccccccccccccccccbbbbbbbbbbbbbbbbbbbbbbbbbbbbbbbbaaaaaaaaaaaaaaaaaaaaaaaaaa-----------..-
(PID.TID 0000.0001) //      9 -..-------------aaaaaaaaaaaaaaaaaaaaaaaaaaaaabbbbbbbbbbbbbbbbbbbbbbbbbbbbbbbbbbbbbbbccccccccccccccccccccccccccccccccccccccccccccccccccccccccccccccccccccccccccccccccccccbbbbbbbbbbbbbbbbbbbbbbbbbbbbbbbbbbbbbbbaaaaaaaaaaaaaaaaaaaaaaaaaaaaa-------------..-
(PID.TID 0000.0001) //      8 -..---------------aaaaaaaaaaaaaaaaaaaaaaaaaaaaaaaaaabbbbbbbbbbbbbbbbbbbbbbbbbbbbbbbbbbbbbbbbbbbbbbbbbbbbbbbbbbccccccccccccccccccccccccccccccccbbbbbbbbbbbbbbbbbbbbbbbbbbbbbbbbbbbbbbbbbbbbbbbbbbbbbbbbbbaaaaaaaaaaaaaaaaaaaaaaaaaaaaaaaaaa---------------..-
(PID.TID 0000.0001) //      7 -..-----------------aaaaaaaaaaaaaaaaaaaaaaaaaaaaaaaaaaaaaaaaabbbbbbbbbbbbbbbbbbbbbbbbbbbbbbbbbbbbbbbbbbbbbbbbbbbbbbbbbbbbbbbbbbbbbbbbbbbbbbbbbbbbbbbbbbbbbbbbbbbbbbbbbbbbbbbbbbbbbbbbbbbbbbbbbbaaaaaaaaaaaaaaaaaaaaaaaaaaaaaaaaaaaaaaaaa-----------------..-
(PID.TID 0000.0001) //      6 -..---------------------aaaaaaaaaaaaaaaaaaaaaaaaaaaaaaaaaaaaaaaaaaaaaaaaaaaabbbbbbbbbbbbbbbbbbbbbbbbbbbbbbbbbbbbbbbbbbbbbbbbbbbbbbbbbbbbbbbbbbbbbbbbbbbbbbbbbbbbbbbbbbbbbbbbbbbbaaaaaaaaaaaaaaaaaaaaaaaaaaaaaaaaaaaaaaaaaaaaaaaaaaaa---------------------..-
(PID.TID 0000.0001) //      5 -..--------------------------aaaaaaaaaaaaaaaaaaaaaaaaaaaaaaaaaaaaaaaaaaaaaaaaaaaaaaaaaaaaaaaaaaaaaaaaaaaaaaaaaabbbbbbbbbbbbbbbbbbbbbbbbbbbbbbaaaaaaaaaaaaaaaaaaaaaaaaaaaaaaaaaaaaaaaaaaaaaaaaaaaaaaaaaaaaaaaaaaaaaaaaaaaaaaaaaa--------------------------..-
(PID.TID 0000.0001) //      4 -..----------------------------------aaaaaaaaaaaaaaaaaaaaaaaaaaaaaaaaaaaaaaaaaaaaaaaaaaaaaaaaaaaaaaaaaaaaaaaaaaaaaaaaaaaaaaaaaaaaaaaaaaaaaaaaaaaaaaaaaaaaaaaaaaaaaaaaaaaaaaaaaaaaaaaaaaaaaaaaaaaaaaaaaaaaaaaaaaaaaaaaaa----------------------------------..-
(PID.TID 0000.0001) //      3 -..-------------------------------------------------aaaaaaaaaaaaaaaaaaaaaaaaaaaaaaaaaaaaaaaaaaaaaaaaaaaaaaaaaaaaaaaaaaaaaaaaaaaaaaaaaaaaaaaaaaaaaaaaaaaaaaaaaaaaaaaaaaaaaaaaaaaaaaaaaaaaaaaaaaaaaaaaaaaa-------------------------------------------------..-
(PID.TID 0000.0001) //      2 -..------------------------------------------------------------------------------------------------------------------aaaaaaaaaaaaaaaaaa------------------------------------------------------------------------------------------------------------------..-
(PID.TID 0000.0001) //      1 ............................................................................................................................................................................................................................................................
(PID.TID 0000.0001) //      0 ............................................................................................................................................................................................................................................................
(PID.TID 0000.0001) //     -1 -..------------------------------------------------------------------------------------------------------------------aaaaaaaaaaaaaaaaaa------------------------------------------------------------------------------------------------------------------..-
(PID.TID 0000.0001) // =======================================================
(PID.TID 0000.0001) // END OF FIELD                                          =
(PID.TID 0000.0001) // =======================================================
(PID.TID 0000.0001) 
(PID.TID 0000.0001) // =======================================================
(PID.TID 0000.0001) // Field Model Ro_surf (ini_masks_etc)
(PID.TID 0000.0001) // CMIN =          1.000000000000000E+32
(PID.TID 0000.0001) // CMAX =         -1.000000000000000E+32
(PID.TID 0000.0001) // CINT =          0.000000000000000E+00
(PID.TID 0000.0001) // SYMBOLS (CMIN->CMAX): -abcdefghijklmnopqrstuvwxyz+
(PID.TID 0000.0001) //                  0.0: .
(PID.TID 0000.0001) // RANGE I (Lo:Hi:Step):(    -1:   250:     1)
(PID.TID 0000.0001) // RANGE J (Lo:Hi:Step):(   250:    -1:    -1)
(PID.TID 0000.0001) // RANGE K (Lo:Hi:Step):(   1:   1:   1)
(PID.TID 0000.0001) // =======================================================
(PID.TID 0000.0001) // =======================================================
(PID.TID 0000.0001) // END OF FIELD                                          =
(PID.TID 0000.0001) // =======================================================
(PID.TID 0000.0001) 
(PID.TID 0000.0001) // =======================================================
(PID.TID 0000.0001) // Field hFacC at iteration          0
(PID.TID 0000.0001) // CMIN =          9.000040039062500E-01
(PID.TID 0000.0001) // CMAX =          9.999638671875001E-01
(PID.TID 0000.0001) // CINT =          3.702217158564817E-03
(PID.TID 0000.0001) // SYMBOLS (CMIN->CMAX): -abcdefghijklmnopqrstuvwxyz+
(PID.TID 0000.0001) //                  0.0: .
(PID.TID 0000.0001) // RANGE I (Lo:Hi:Step):(    -1:   250:     1)
(PID.TID 0000.0001) // RANGE J (Lo:Hi:Step):(   250:    -1:    -1)
(PID.TID 0000.0001) // RANGE K (Lo:Hi:Step):(   1:   1:   1)
(PID.TID 0000.0001) // =======================================================
(PID.TID 0000.0001) K =   1
(PID.TID 0000.0001) //                I=8       I=18      I=28      I=38      I=48      I=58      I=68      I=78      I=88      I=98      I=108     I=118     I=128     I=138     I=148     I=158     I=168     I=178     I=188     I=198     I=208     I=218     I=228     I=238     I=248
(PID.TID 0000.0001) // |--J--|101234567|901234567|901234567|901234567|901234567|901234567|901234567|901234567|901234567|901234567|901234567|901234567|901234567|901234567|901234567|901234567|901234567|901234567|901234567|901234567|901234567|901234567|901234567|901234567|901234567|90
(PID.TID 0000.0001) //    250 +..++++++++++++++++++++++++++++++++++++++++++++++++++++++++++++++++++++++++++++++++++++++++++++++++++++++++++++++++++zzzzzzzzzzzzzzzzzz++++++++++++++++++++++++++++++++++++++++++++++++++++++++++++++++++++++++++++++++++++++++++++++++++++++++++++++++++..+
(PID.TID 0000.0001) //    249 ............................................................................................................................................................................................................................................................
(PID.TID 0000.0001) //    248 ............................................................................................................................................................................................................................................................
(PID.TID 0000.0001) //    247 +..++++++++++++++++++++++++++++++++++++++++++++++++++++++++++++++++++++++++++++++++++++++++++++++++++++++++++++++++++zzzzzzzzzzzzzzzzzz++++++++++++++++++++++++++++++++++++++++++++++++++++++++++++++++++++++++++++++++++++++++++++++++++++++++++++++++++..+
(PID.TID 0000.0001) //    246 +..+++++++++++++++++++++++++++++++++++++++++++++++++zzzzzzzzzzzzzzzzzzzzzzzzzzzzzzzzzzzzzzzzzzzzzzzzzzzzzzzzzzzzzzzzzzzzzzzzzzzzzzzzzzzzzzzzzzzzzzzzzzzzzzzzzzzzzzzzzzzzzzzzzzzzzzzzzzzzzzzzzzzzzzzzzzzz+++++++++++++++++++++++++++++++++++++++++++++++++..+
(PID.TID 0000.0001) //    245 +..++++++++++++++++++++++++++++++++++zzzzzzzzzzzzzzzzzzzzzzzzzzzzzzzzzzzzzzzzzzzzzzzzzzzzzzzzzzzzzzzzzzzzzzzzzzzzzzzzzzzzzzzzzzzzzzzzzzzzzzzzzzzzzzzzzzzzzzzzzzzzzzzzzzzzzzzzzzzzzzzzzzzzzzzzzzzzzzzzzzzzzzzzzzzzzzzzzz++++++++++++++++++++++++++++++++++..+
(PID.TID 0000.0001) //    244 +..++++++++++++++++++++++++++zzzzzzzzzzzzzzzzzzzzzzzzzzzzzzzzzzzzzzzzzzzzzzzzzzzzzzzzzzzzzzzzzzzzzzzzzzzzzzzzzzyyyyyyyyyyyyyyyyyyyyyyyyyyyyyyzzzzzzzzzzzzzzzzzzzzzzzzzzzzzzzzzzzzzzzzzzzzzzzzzzzzzzzzzzzzzzzzzzzzzzzzzzzzzzzzzz++++++++++++++++++++++++++..+
(PID.TID 0000.0001) //    243 +..+++++++++++++++++++++zzzzzzzzzzzzzzzzzzzzzzzzzzzzzzzzzzzzzzzzzzzzzzzzzzzzyyyyyyyyyyyyyyyyyyyyyyyyyyyyyyyyyyyyyyyyyyyyyyyyyyyyyyyyyyyyyyyyyyyyyyyyyyyyyyyyyyyyyyyyyyyyyyyyyyyyzzzzzzzzzzzzzzzzzzzzzzzzzzzzzzzzzzzzzzzzzzzzzzzzzzzz+++++++++++++++++++++..+
(PID.TID 0000.0001) //    242 +..+++++++++++++++++zzzzzzzzzzzzzzzzzzzzzzzzzzzzzzzzzzzzzzzzzyyyyyyyyyyyyyyyyyyyyyyyyyyyyyyyyyyyyyyyyyyyyyyyyyyyyyyyyyyyyyyyyyyyyyyyyyyyyyyyyyyyyyyyyyyyyyyyyyyyyyyyyyyyyyyyyyyyyyyyyyyyyyyyyyyzzzzzzzzzzzzzzzzzzzzzzzzzzzzzzzzzzzzzzzzz+++++++++++++++++..+
(PID.TID 0000.0001) //    241 +..+++++++++++++++zzzzzzzzzzzzzzzzzzzzzzzzzzzzzzzzzzyyyyyyyyyyyyyyyyyyyyyyyyyyyyyyyyyyyyyyyyyyyyyyyyyyyyyyyyyyxxxxxxxxxxxxxxxxxxxxxxxxxxxxxxxxyyyyyyyyyyyyyyyyyyyyyyyyyyyyyyyyyyyyyyyyyyyyyyyyyyyyyyyyyyzzzzzzzzzzzzzzzzzzzzzzzzzzzzzzzzzz+++++++++++++++..+
(PID.TID 0000.0001) //    240 +..+++++++++++++zzzzzzzzzzzzzzzzzzzzzzzzzzzzzyyyyyyyyyyyyyyyyyyyyyyyyyyyyyyyyyyyyyyyxxxxxxxxxxxxxxxxxxxxxxxxxxxxxxxxxxxxxxxxxxxxxxxxxxxxxxxxxxxxxxxxxxxxxxxxxxxxxxxxxxxxyyyyyyyyyyyyyyyyyyyyyyyyyyyyyyyyyyyyyyyzzzzzzzzzzzzzzzzzzzzzzzzzzzzz+++++++++++++..+
(PID.TID 0000.0001) //    239 +..+++++++++++zzzzzzzzzzzzzzzzzzzzzzzzzzyyyyyyyyyyyyyyyyyyyyyyyyyyyyyyyyxxxxxxxxxxxxxxxxxxxxxxxxxxxxxxxxxxxxxxxxxxxxxxxxxxxxxxxxxxxxxxxxxxxxxxxxxxxxxxxxxxxxxxxxxxxxxxxxxxxxxxxxxxxxyyyyyyyyyyyyyyyyyyyyyyyyyyyyyyyyzzzzzzzzzzzzzzzzzzzzzzzzzz+++++++++++..+
(PID.TID 0000.0001) //    238 +..++++++++++zzzzzzzzzzzzzzzzzzzzzzzyyyyyyyyyyyyyyyyyyyyyyyyyyyxxxxxxxxxxxxxxxxxxxxxxxxxxxxxxxxxxxxxxxxxxxxxxxwwwwwwwwwwwwwwwwwwwwwwwwwwwwwwwwxxxxxxxxxxxxxxxxxxxxxxxxxxxxxxxxxxxxxxxxxxxxxxxyyyyyyyyyyyyyyyyyyyyyyyyyyyzzzzzzzzzzzzzzzzzzzzzzz++++++++++..+
(PID.TID 0000.0001) //    237 +..+++++++++zzzzzzzzzzzzzzzzzzzzzyyyyyyyyyyyyyyyyyyyyyyyyxxxxxxxxxxxxxxxxxxxxxxxxxxxxxxxxxwwwwwwwwwwwwwwwwwwwwwwwwwwwwwwwwwwwwwwwwwwwwwwwwwwwwwwwwwwwwwwwwwwwwwwwwxxxxxxxxxxxxxxxxxxxxxxxxxxxxxxxxxyyyyyyyyyyyyyyyyyyyyyyyyzzzzzzzzzzzzzzzzzzzzz+++++++++..+
(PID.TID 0000.0001) //    236 +..++++++++zzzzzzzzzzzzzzzzzzzzyyyyyyyyyyyyyyyyyyyyyxxxxxxxxxxxxxxxxxxxxxxxxxxwwwwwwwwwwwwwwwwwwwwwwwwwwwwwwwwwwwwwwwwwwwwwwwwwwwwwwwwwwwwwwwwwwwwwwwwwwwwwwwwwwwwwwwwwwwwwwwwxxxxxxxxxxxxxxxxxxxxxxxxxxyyyyyyyyyyyyyyyyyyyyyzzzzzzzzzzzzzzzzzzzz++++++++..+
(PID.TID 0000.0001) //    235 +..++++++++zzzzzzzzzzzzzzzzzyyyyyyyyyyyyyyyyyyyyxxxxxxxxxxxxxxxxxxxxxxxwwwwwwwwwwwwwwwwwwwwwwwwwwwwwwwwwwwwwwwwvvvvvvvvvvvvvvvvvvvvvvvvvvvvvvwwwwwwwwwwwwwwwwwwwwwwwwwwwwwwwwwwwwwwwwxxxxxxxxxxxxxxxxxxxxxxxyyyyyyyyyyyyyyyyyyyyzzzzzzzzzzzzzzzzz++++++++..+
(PID.TID 0000.0001) //    234 +..+++++++zzzzzzzzzzzzzzzzzyyyyyyyyyyyyyyyyyxxxxxxxxxxxxxxxxxxxxwwwwwwwwwwwwwwwwwwwwwwwwwwwwwvvvvvvvvvvvvvvvvvvvvvvvvvvvvvvvvvvvvvvvvvvvvvvvvvvvvvvvvvvvvvvvvvvwwwwwwwwwwwwwwwwwwwwwwwwwwwwwxxxxxxxxxxxxxxxxxxxxyyyyyyyyyyyyyyyyyzzzzzzzzzzzzzzzzz+++++++..+
(PID.TID 0000.0001) //    233 +..+++++++zzzzzzzzzzzzzzzyyyyyyyyyyyyyyyyxxxxxxxxxxxxxxxxxxxwwwwwwwwwwwwwwwwwwwwwwwvvvvvvvvvvvvvvvvvvvvvvvvvvvvvvvvvvvvvvvvvvvvvvvvvvvvvvvvvvvvvvvvvvvvvvvvvvvvvvvvvvvvvvwwwwwwwwwwwwwwwwwwwwwwwxxxxxxxxxxxxxxxxxxxyyyyyyyyyyyyyyyyzzzzzzzzzzzzzzz+++++++..+
(PID.TID 0000.0001) //    232 +..++++++zzzzzzzzzzzzzzzyyyyyyyyyyyyyyyxxxxxxxxxxxxxxxxwwwwwwwwwwwwwwwwwwwwwvvvvvvvvvvvvvvvvvvvvvvvvvvvvvvvvvvvuuuuuuuuuuuuuuuuuuuuuuuuuuuuuuvvvvvvvvvvvvvvvvvvvvvvvvvvvvvvvvvvvwwwwwwwwwwwwwwwwwwwwwxxxxxxxxxxxxxxxxyyyyyyyyyyyyyyyzzzzzzzzzzzzzzz++++++..+
(PID.TID 0000.0001) //    231 +..++++++zzzzzzzzzzzzzyyyyyyyyyyyyyyxxxxxxxxxxxxxxxxwwwwwwwwwwwwwwwwwwvvvvvvvvvvvvvvvvvvvvvvvvvvuuuuuuuuuuuuuuuuuuuuuuuuuuuuuuuuuuuuuuuuuuuuuuuuuuuuuuuuuuuuvvvvvvvvvvvvvvvvvvvvvvvvvvwwwwwwwwwwwwwwwwwwxxxxxxxxxxxxxxxxyyyyyyyyyyyyyyzzzzzzzzzzzzz++++++..+
(PID.TID 0000.0001) //    230 +..+++++zzzzzzzzzzzzzyyyyyyyyyyyyyxxxxxxxxxxxxxxxwwwwwwwwwwwwwwwwvvvvvvvvvvvvvvvvvvvvvvuuuuuuuuuuuuuuuuuuuuuuuuuuuuuuuuuuuuuuuuuuuuuuuuuuuuuuuuuuuuuuuuuuuuuuuuuuuuuuvvvvvvvvvvvvvvvvvvvvvvwwwwwwwwwwwwwwwwxxxxxxxxxxxxxxxyyyyyyyyyyyyyzzzzzzzzzzzzz+++++..+
(PID.TID 0000.0001) //    229 +..+++++zzzzzzzzzzzzyyyyyyyyyyyyyxxxxxxxxxxxxxwwwwwwwwwwwwwwwvvvvvvvvvvvvvvvvvvvuuuuuuuuuuuuuuuuuuuuuuuuuuuuuuuuuttttttttttttttttttttttttttuuuuuuuuuuuuuuuuuuuuuuuuuuuuuuuuuvvvvvvvvvvvvvvvvvvvwwwwwwwwwwwwwwwxxxxxxxxxxxxxyyyyyyyyyyyyyzzzzzzzzzzzz+++++..+
(PID.TID 0000.0001) //    228 +..+++++zzzzzzzzzzzyyyyyyyyyyyyxxxxxxxxxxxxxwwwwwwwwwwwwwwvvvvvvvvvvvvvvvvuuuuuuuuuuuuuuuuuuuuuuuuttttttttttttttttttttttttttttttttttttttttttttttttttttttttuuuuuuuuuuuuuuuuuuuuuuuuvvvvvvvvvvvvvvvvwwwwwwwwwwwwwwxxxxxxxxxxxxxyyyyyyyyyyyyzzzzzzzzzzz+++++..+
(PID.TID 0000.0001) //    227 +..+++++zzzzzzzzzzzyyyyyyyyyyyxxxxxxxxxxxxwwwwwwwwwwwwwvvvvvvvvvvvvvvvuuuuuuuuuuuuuuuuuuuuttttttttttttttttttttttttttttttttttttttttttttttttttttttttttttttttttttttttuuuuuuuuuuuuuuuuuuuuvvvvvvvvvvvvvvvwwwwwwwwwwwwwxxxxxxxxxxxxyyyyyyyyyyyzzzzzzzzzzz+++++..+
(PID.TID 0000.0001) //    226 +..++++zzzzzzzzzzzyyyyyyyyyyyxxxxxxxxxxxwwwwwwwwwwwwvvvvvvvvvvvvvvuuuuuuuuuuuuuuuuutttttttttttttttttttttttttttttttsssssssssssssssssssssssstttttttttttttttttttttttttttttttuuuuuuuuuuuuuuuuuvvvvvvvvvvvvvvwwwwwwwwwwwwxxxxxxxxxxxyyyyyyyyyyyzzzzzzzzzzz++++..+
(PID.TID 0000.0001) //    225 +..++++zzzzzzzzzzyyyyyyyyyyxxxxxxxxxxxwwwwwwwwwwwwvvvvvvvvvvvvvuuuuuuuuuuuuuuuttttttttttttttttttttttssssssssssssssssssssssssssssssssssssssssssssssssssssttttttttttttttttttttttuuuuuuuuuuuuuuuvvvvvvvvvvvvvwwwwwwwwwwwwxxxxxxxxxxxyyyyyyyyyyzzzzzzzzzz++++..+
(PID.TID 0000.0001) //    224 +..++++zzzzzzzzzzyyyyyyyyyxxxxxxxxxxxwwwwwwwwwwwvvvvvvvvvvvvuuuuuuuuuuuuuuttttttttttttttttttssssssssssssssssssssssssssssssssssssssssssssssssssssssssssssssssssssttttttttttttttttttuuuuuuuuuuuuuuvvvvvvvvvvvvwwwwwwwwwwwxxxxxxxxxxxyyyyyyyyyzzzzzzzzzz++++..+
(PID.TID 0000.0001) //    223 +..++++zzzzzzzzzyyyyyyyyyxxxxxxxxxxwwwwwwwwwwwvvvvvvvvvvvuuuuuuuuuuuuuttttttttttttttttssssssssssssssssssssssssssssssrrrrrrrrrrrrrrrrrrrrssssssssssssssssssssssssssssssttttttttttttttttuuuuuuuuuuuuuvvvvvvvvvvvwwwwwwwwwwwxxxxxxxxxxyyyyyyyyyzzzzzzzzz++++..+
(PID.TID 0000.0001) //    222 +..++++zzzzzzzzyyyyyyyyyyxxxxxxxxxwwwwwwwwwwvvvvvvvvvvvuuuuuuuuuuuuttttttttttttttssssssssssssssssssssssrrrrrrrrrrrrrrrrrrrrrrrrrrrrrrrrrrrrrrrrrrrrrrssssssssssssssssssssssttttttttttttttuuuuuuuuuuuuvvvvvvvvvvvwwwwwwwwwwxxxxxxxxxyyyyyyyyyyzzzzzzzz++++..+
(PID.TID 0000.0001) //    221 +..+++zzzzzzzzzyyyyyyyyyxxxxxxxxxwwwwwwwwwvvvvvvvvvvvuuuuuuuuuuutttttttttttttssssssssssssssssssrrrrrrrrrrrrrrrrrrrrrrrrrrrrrrrrrrrrrrrrrrrrrrrrrrrrrrrrrrrrrrsssssssssssssssssstttttttttttttuuuuuuuuuuuvvvvvvvvvvvwwwwwwwwwxxxxxxxxxyyyyyyyyyzzzzzzzzz+++..+
(PID.TID 0000.0001) //    220 +..+++zzzzzzzzzyyyyyyyyxxxxxxxxxwwwwwwwwwvvvvvvvvvvuuuuuuuuuutttttttttttttsssssssssssssssrrrrrrrrrrrrrrrrrrrrrrrrrrrrrrrqqqqqqqqqqqqrrrrrrrrrrrrrrrrrrrrrrrrrrrrrrrssssssssssssssstttttttttttttuuuuuuuuuuvvvvvvvvvvwwwwwwwwwxxxxxxxxxyyyyyyyyzzzzzzzzz+++..+
(PID.TID 0000.0001) //    219 +..+++zzzzzzzzyyyyyyyyxxxxxxxxxwwwwwwwwvvvvvvvvvvuuuuuuuuuutttttttttttssssssssssssssrrrrrrrrrrrrrrrrrrrrrqqqqqqqqqqqqqqqqqqqqqqqqqqqqqqqqqqqqqqqqqqrrrrrrrrrrrrrrrrrrrrrsssssssssssssstttttttttttuuuuuuuuuuvvvvvvvvvvwwwwwwwwxxxxxxxxxyyyyyyyyzzzzzzzz+++..+
(PID.TID 0000.0001) //    218 +..+++zzzzzzzzyyyyyyyyxxxxxxxxwwwwwwwwvvvvvvvvvuuuuuuuuuutttttttttttssssssssssssrrrrrrrrrrrrrrrrrqqqqqqqqqqqqqqqqqqqqqqqqqqqqqqqqqqqqqqqqqqqqqqqqqqqqqqqqqqrrrrrrrrrrrrrrrrrsssssssssssstttttttttttuuuuuuuuuuvvvvvvvvvwwwwwwwwxxxxxxxxyyyyyyyyzzzzzzzz+++..+
(PID.TID 0000.0001) //    217 +..+++zzzzzzzyyyyyyyyxxxxxxxxwwwwwwwwvvvvvvvvvuuuuuuuuuttttttttttssssssssssssrrrrrrrrrrrrrrrqqqqqqqqqqqqqqqqqqqqqqqqqqqqqqqqqqqqqqqqqqqqqqqqqqqqqqqqqqqqqqqqqqqqrrrrrrrrrrrrrrrssssssssssssttttttttttuuuuuuuuuvvvvvvvvvwwwwwwwwxxxxxxxxyyyyyyyyzzzzzzz+++..+
(PID.TID 0000.0001) //    216 +..+++zzzzzzzyyyyyyyxxxxxxxxwwwwwwwwvvvvvvvvuuuuuuuuuttttttttttsssssssssssrrrrrrrrrrrrrqqqqqqqqqqqqqqqqqqqqppppppppppppppppppppppppppppppppppppppqqqqqqqqqqqqqqqqqqqqrrrrrrrrrrrrrsssssssssssttttttttttuuuuuuuuuvvvvvvvvwwwwwwwwxxxxxxxxyyyyyyyzzzzzzz+++..+
(PID.TID 0000.0001) //    215 +..+++zzzzzzzyyyyyyyxxxxxxxwwwwwwwwvvvvvvvvuuuuuuuuttttttttttssssssssssrrrrrrrrrrrrqqqqqqqqqqqqqqqqqppppppppppppppppppppppppppppppppppppppppppppppppppppqqqqqqqqqqqqqqqqqrrrrrrrrrrrrssssssssssttttttttttuuuuuuuuvvvvvvvvwwwwwwwwxxxxxxxyyyyyyyzzzzzzz+++..+
(PID.TID 0000.0001) //    214 +..+++zzzzzzyyyyyyyxxxxxxxxwwwwwwwvvvvvvvvuuuuuuuutttttttttsssssssssrrrrrrrrrrrrqqqqqqqqqqqqqqppppppppppppppppppppppppppppppppppppppppppppppppppppppppppppppppqqqqqqqqqqqqqqrrrrrrrrrrrrssssssssstttttttttuuuuuuuuvvvvvvvvwwwwwwwxxxxxxxxyyyyyyyzzzzzz+++..+
(PID.TID 0000.0001) //    213 +..++zzzzzzzyyyyyyyxxxxxxxwwwwwwwvvvvvvvvuuuuuuutttttttttsssssssssrrrrrrrrrrrqqqqqqqqqqqqqppppppppppppppppppppooooooooooooooooooooooooooooooooppppppppppppppppppppqqqqqqqqqqqqqrrrrrrrrrrrssssssssstttttttttuuuuuuuvvvvvvvvwwwwwwwxxxxxxxyyyyyyyzzzzzzz++..+
(PID.TID 0000.0001) //    212 +..++zzzzzzzyyyyyyyxxxxxxwwwwwwwvvvvvvvuuuuuuuuttttttttsssssssssrrrrrrrrrrqqqqqqqqqqqqppppppppppppppppooooooooooooooooooooooooooooooooooooooooooooooooppppppppppppppppqqqqqqqqqqqqrrrrrrrrrrsssssssssttttttttuuuuuuuuvvvvvvvwwwwwwwxxxxxxyyyyyyyzzzzzzz++..+
(PID.TID 0000.0001) //    211 +..++zzzzzzzyyyyyyxxxxxxxwwwwwwvvvvvvvuuuuuuuuttttttttssssssssrrrrrrrrrqqqqqqqqqqqpppppppppppppppoooooooooooooooooooooooooooooooooooooooooooooooooooooooooopppppppppppppppqqqqqqqqqqqrrrrrrrrrssssssssttttttttuuuuuuuuvvvvvvvwwwwwwxxxxxxxyyyyyyzzzzzzz++..+
(PID.TID 0000.0001) //    210 +..++zzzzzzyyyyyyyxxxxxxwwwwwwwvvvvvvvuuuuuuutttttttssssssssrrrrrrrrrqqqqqqqqqqpppppppppppppoooooooooooooooooooooonnnnnnnnnnnnnnnnnnnnnnnnoooooooooooooooooooooopppppppppppppqqqqqqqqqqrrrrrrrrrsssssssstttttttuuuuuuuvvvvvvvwwwwwwwxxxxxxyyyyyyyzzzzzz++..+
(PID.TID 0000.0001) //    209 +..++zzzzzzyyyyyyxxxxxxxwwwwwwvvvvvvvuuuuuuutttttttssssssssrrrrrrrrqqqqqqqqqqpppppppppppooooooooooooooooonnnnnnnnnnnnnnnnnnnnnnnnnnnnnnnnnnnnnnnnnnooooooooooooooooopppppppppppqqqqqqqqqqrrrrrrrrsssssssstttttttuuuuuuuvvvvvvvwwwwwwxxxxxxxyyyyyyzzzzzz++..+
(PID.TID 0000.0001) //    208 +..++zzzzzzyyyyyyxxxxxxwwwwwwvvvvvvvuuuuuuutttttttsssssssrrrrrrrrqqqqqqqqqpppppppppppoooooooooooooonnnnnnnnnnnnnnnnnnnnnnnnnnnnnnnnnnnnnnnnnnnnnnnnnnnnnnoooooooooooooopppppppppppqqqqqqqqqrrrrrrrrssssssstttttttuuuuuuuvvvvvvvwwwwwwxxxxxxyyyyyyzzzzzz++..+
(PID.TID 0000.0001) //    207 +..++zzzzzzyyyyyyxxxxxxwwwwwwvvvvvvuuuuuuuttttttssssssssrrrrrrrqqqqqqqqqppppppppppooooooooooooonnnnnnnnnnnnnnnnnnnnnnnnnmmmmmmmmmmmmnnnnnnnnnnnnnnnnnnnnnnnnnoooooooooooooppppppppppqqqqqqqqqrrrrrrrssssssssttttttuuuuuuuvvvvvvwwwwwwxxxxxxyyyyyyzzzzzz++..+
(PID.TID 0000.0001) //    206 +..++zzzzzzyyyyyxxxxxxwwwwwwvvvvvvuuuuuuuttttttsssssssrrrrrrrrqqqqqqqqpppppppppoooooooooooonnnnnnnnnnnnnnnnnmmmmmmmmmmmmmmmmmmmmmmmmmmmmmmmmmmmmnnnnnnnnnnnnnnnnnoooooooooooopppppppppqqqqqqqqrrrrrrrrsssssssttttttuuuuuuuvvvvvvwwwwwwxxxxxxyyyyyzzzzzz++..+
(PID.TID 0000.0001) //    205 +..++zzzzzyyyyyyxxxxxxwwwwwwvvvvvvuuuuuuttttttsssssssrrrrrrrqqqqqqqqpppppppppooooooooooonnnnnnnnnnnnnnmmmmmmmmmmmmmmmmmmmmmmmmmmmmmmmmmmmmmmmmmmmmmmmmnnnnnnnnnnnnnnooooooooooopppppppppqqqqqqqqrrrrrrrsssssssttttttuuuuuuvvvvvvwwwwwwxxxxxxyyyyyyzzzzz++..+
(PID.TID 0000.0001) //    204 +..++zzzzzyyyyyyxxxxxwwwwwwvvvvvvuuuuuuttttttsssssssrrrrrrrqqqqqqqpppppppppoooooooooonnnnnnnnnnnnnmmmmmmmmmmmmmmmmmmmmmmmmmmmmmmmmmmmmmmmmmmmmmmmmmmmmmmmmnnnnnnnnnnnnnoooooooooopppppppppqqqqqqqrrrrrrrsssssssttttttuuuuuuvvvvvvwwwwwwxxxxxyyyyyyzzzzz++..+
(PID.TID 0000.0001) //    203 +..++zzzzzyyyyyyxxxxxwwwwwwvvvvvuuuuuuttttttsssssssrrrrrrqqqqqqqqppppppppooooooooonnnnnnnnnnnnmmmmmmmmmmmmmmmmmmmllllllllllllllllllllllllllmmmmmmmmmmmmmmmmmmmnnnnnnnnnnnnoooooooooppppppppqqqqqqqqrrrrrrsssssssttttttuuuuuuvvvvvwwwwwwxxxxxyyyyyyzzzzz++..+
(PID.TID 0000.0001) //    202 +..++zzzzzyyyyyxxxxxxwwwwwvvvvvvuuuuuttttttsssssssrrrrrrqqqqqqqppppppppooooooooonnnnnnnnnnmmmmmmmmmmmmmmmmllllllllllllllllllllllllllllllllllllllllmmmmmmmmmmmmmmmmnnnnnnnnnnoooooooooppppppppqqqqqqqrrrrrrsssssssttttttuuuuuvvvvvvwwwwwxxxxxxyyyyyzzzzz++..+
(PID.TID 0000.0001) //    201 +..++zzzzzyyyyyxxxxxwwwwwwvvvvvuuuuuuttttttssssssrrrrrrqqqqqqqpppppppooooooooonnnnnnnnnnmmmmmmmmmmmmmllllllllllllllllllllllllllllllllllllllllllllllllllmmmmmmmmmmmmmnnnnnnnnnnooooooooopppppppqqqqqqqrrrrrrssssssttttttuuuuuuvvvvvwwwwwwxxxxxyyyyyzzzzz++..+
(PID.TID 0000.0001) //    200 +..++zzzzzyyyyyxxxxxwwwwwvvvvvvuuuuuttttttssssssrrrrrrqqqqqqppppppppoooooooonnnnnnnnnmmmmmmmmmmmmllllllllllllllllllllllkkkkkkkkkkkkkkllllllllllllllllllllllmmmmmmmmmmmmnnnnnnnnnooooooooppppppppqqqqqqrrrrrrssssssttttttuuuuuvvvvvvwwwwwxxxxxyyyyyzzzzz++..+
(PID.TID 0000.0001) //    199 +..++zzzzzyyyyyxxxxxwwwwwvvvvvuuuuuttttttssssssrrrrrrqqqqqqpppppppoooooooonnnnnnnnnmmmmmmmmmmlllllllllllllllllkkkkkkkkkkkkkkkkkkkkkkkkkkkkkkkklllllllllllllllllmmmmmmmmmmnnnnnnnnnoooooooopppppppqqqqqqrrrrrrssssssttttttuuuuuvvvvvwwwwwxxxxxyyyyyzzzzz++..+
(PID.TID 0000.0001) //    198 +..+zzzzzyyyyyxxxxxwwwwwvvvvvvuuuuutttttssssssrrrrrrqqqqqqpppppppooooooonnnnnnnnmmmmmmmmmmllllllllllllllkkkkkkkkkkkkkkkkkkkkkkkkkkkkkkkkkkkkkkkkkkkkllllllllllllllmmmmmmmmmmnnnnnnnnooooooopppppppqqqqqqrrrrrrsssssstttttuuuuuvvvvvvwwwwwxxxxxyyyyyzzzzz+..+
(PID.TID 0000.0001) //    197 +..+zzzzzyyyyyxxxxxwwwwwvvvvvuuuuuttttttsssssrrrrrrqqqqqqppppppoooooooonnnnnnnmmmmmmmmmmllllllllllllkkkkkkkkkkkkkkkkkkkkkkkkkkkkkkkkkkkkkkkkkkkkkkkkkkkkllllllllllllmmmmmmmmmmnnnnnnnooooooooppppppqqqqqqrrrrrrsssssttttttuuuuuvvvvvwwwwwxxxxxyyyyyzzzzz+..+
(PID.TID 0000.0001) //    196 +..+zzzzzyyyyyxxxxxwwwwwvvvvvuuuuutttttsssssrrrrrrqqqqqqppppppooooooonnnnnnnnmmmmmmmmlllllllllllkkkkkkkkkkkkkkkkkkkjjjjjjjjjjjjjjjjjjjjjjkkkkkkkkkkkkkkkkkkklllllllllllmmmmmmmmnnnnnnnnoooooooppppppqqqqqqrrrrrrssssstttttuuuuuvvvvvwwwwwxxxxxyyyyyzzzzz+..+
(PID.TID 0000.0001) //    195 +..+zzzzzyyyyyxxxxwwwwwvvvvvuuuuutttttssssssrrrrrqqqqqqppppppooooooonnnnnnnmmmmmmmmllllllllllkkkkkkkkkkkkkkkjjjjjjjjjjjjjjjjjjjjjjjjjjjjjjjjjjjjkkkkkkkkkkkkkkkllllllllllmmmmmmmmnnnnnnnoooooooppppppqqqqqqrrrrrsssssstttttuuuuuvvvvvwwwwwxxxxyyyyyzzzzz+..+
(PID.TID 0000.0001) //    194 +..+zzzzzyyyyyxxxxwwwwwvvvvvuuuuutttttsssssrrrrrqqqqqqppppppoooooonnnnnnnmmmmmmmmllllllllllkkkkkkkkkkkkkjjjjjjjjjjjjjjjjjjjjjjjjjjjjjjjjjjjjjjjjjjjjkkkkkkkkkkkkkllllllllllmmmmmmmmnnnnnnnooooooppppppqqqqqqrrrrrssssstttttuuuuuvvvvvwwwwwxxxxyyyyyzzzzz+..+
(PID.TID 0000.0001) //    193 +..+zzzzzyyyyxxxxxwwwwwvvvvuuuuutttttsssssrrrrrqqqqqqppppppoooooonnnnnnnmmmmmmmlllllllllkkkkkkkkkkkkjjjjjjjjjjjjjjjjjjjjjjjjjjjjjjjjjjjjjjjjjjjjjjjjjjjjkkkkkkkkkkkklllllllllmmmmmmmnnnnnnnooooooppppppqqqqqqrrrrrssssstttttuuuuuvvvvwwwwwxxxxxyyyyzzzzz+..+
(PID.TID 0000.0001) //    192 +..+zzzzzyyyyxxxxxwwwwvvvvvuuuuutttttsssssrrrrrqqqqqppppppoooooonnnnnnmmmmmmmmllllllllkkkkkkkkkkkjjjjjjjjjjjjjjjjjiiiiiiiiiiiiiiiiiiiiiiiijjjjjjjjjjjjjjjjjkkkkkkkkkkkllllllllmmmmmmmmnnnnnnooooooppppppqqqqqrrrrrssssstttttuuuuuvvvvvwwwwxxxxxyyyyzzzzz+..+
(PID.TID 0000.0001) //    191 +..+zzzzzyyyyxxxxxwwwwvvvvvuuuutttttsssssrrrrrqqqqqppppppoooooonnnnnnmmmmmmmllllllllkkkkkkkkkkjjjjjjjjjjjjjjiiiiiiiiiiiiiiiiiiiiiiiiiiiiiiiiiiiijjjjjjjjjjjjjjkkkkkkkkkkllllllllmmmmmmmnnnnnnooooooppppppqqqqqrrrrrssssstttttuuuuvvvvvwwwwxxxxxyyyyzzzzz+..+
(PID.TID 0000.0001) //    190 +..+zzzzzyyyyxxxxwwwwwvvvvuuuuutttttssssrrrrrqqqqqppppppoooooonnnnnnmmmmmmmlllllllkkkkkkkkkjjjjjjjjjjjjjiiiiiiiiiiiiiiiiiiiiiiiiiiiiiiiiiiiiiiiiiiiijjjjjjjjjjjjjkkkkkkkkklllllllmmmmmmmnnnnnnooooooppppppqqqqqrrrrrsssstttttuuuuuvvvvwwwwwxxxxyyyyzzzzz+..+
(PID.TID 0000.0001) //    189 +..+zzzzyyyyyxxxxwwwwvvvvvuuuutttttsssssrrrrrqqqqqpppppoooooonnnnnnmmmmmmllllllllkkkkkkkkjjjjjjjjjjjiiiiiiiiiiiiiiiiiiiiiiiiiiiiiiiiiiiiiiiiiiiiiiiiiiiijjjjjjjjjjjkkkkkkkkllllllllmmmmmmnnnnnnoooooopppppqqqqqrrrrrssssstttttuuuuvvvvvwwwwxxxxyyyyyzzzz+..+
(PID.TID 0000.0001) //    188 +..+zzzzyyyyyxxxxwwwwvvvvvuuuutttttssssrrrrrqqqqqpppppoooooonnnnnnmmmmmmlllllllkkkkkkkkjjjjjjjjjjiiiiiiiiiiiiiiiiihhhhhhhhhhhhhhhhhhhhhhhhiiiiiiiiiiiiiiiiijjjjjjjjjjkkkkkkkklllllllmmmmmmnnnnnnoooooopppppqqqqqrrrrrsssstttttuuuuvvvvvwwwwxxxxyyyyyzzzz+..+
(PID.TID 0000.0001) //    187 +..+zzzzyyyyxxxxxwwwwvvvvuuuuuttttsssssrrrrqqqqqpppppoooooonnnnnnmmmmmmlllllllkkkkkkkjjjjjjjjjjiiiiiiiiiiiiihhhhhhhhhhhhhhhhhhhhhhhhhhhhhhhhhhhhiiiiiiiiiiiiijjjjjjjjjjkkkkkkklllllllmmmmmmnnnnnnoooooopppppqqqqqrrrrsssssttttuuuuuvvvvwwwwxxxxxyyyyzzzz+..+
(PID.TID 0000.0001) //    186 +..+zzzzyyyyxxxxwwwwwvvvvuuuutttttssssrrrrrqqqqqpppppooooonnnnnnmmmmmmllllllkkkkkkkkjjjjjjjjiiiiiiiiiiiihhhhhhhhhhhhhhhhhhhhhhhhhhhhhhhhhhhhhhhhhhhhiiiiiiiiiiiijjjjjjjjkkkkkkkkllllllmmmmmmnnnnnnooooopppppqqqqqrrrrrsssstttttuuuuvvvvwwwwwxxxxyyyyzzzz+..+
(PID.TID 0000.0001) //    185 +..+zzzzyyyyxxxxwwwwvvvvvuuuuttttsssssrrrrqqqqqpppppooooonnnnnnmmmmmlllllllkkkkkkkjjjjjjjjiiiiiiiiiiihhhhhhhhhhhhhhhhhhhhhhhhhhhhhhhhhhhhhhhhhhhhhhhhhhiiiiiiiiiiijjjjjjjjkkkkkkklllllllmmmmmnnnnnnooooopppppqqqqqrrrrsssssttttuuuuvvvvvwwwwxxxxyyyyzzzz+..+
(PID.TID 0000.0001) //    184 +..+zzzzyyyyxxxxwwwwvvvvuuuuuttttssssrrrrrqqqqpppppooooonnnnnnmmmmmlllllllkkkkkkjjjjjjjjiiiiiiiiiihhhhhhhhhhhhhhhhhgggggggggggggggggggggghhhhhhhhhhhhhhhhhiiiiiiiiiijjjjjjjjkkkkkklllllllmmmmmnnnnnnooooopppppqqqqrrrrrssssttttuuuuuvvvvwwwwxxxxyyyyzzzz+..+
(PID.TID 0000.0001) //    183 +..+zzzzyyyyxxxxwwwwvvvvuuuutttttssssrrrrqqqqqpppppooooonnnnnmmmmmllllllkkkkkkkjjjjjjjjiiiiiiiiihhhhhhhhhhhhhhgggggggggggggggggggggggggggggggghhhhhhhhhhhhhhiiiiiiiiijjjjjjjjkkkkkkkllllllmmmmmnnnnnooooopppppqqqqqrrrrsssstttttuuuuvvvvwwwwxxxxyyyyzzzz+..+
(PID.TID 0000.0001) //    182 +..+zzzzyyyyxxxxwwwwvvvvuuuuttttssssrrrrrqqqqpppppooooonnnnnmmmmmllllllkkkkkkkjjjjjjjiiiiiiiiihhhhhhhhhhhhgggggggggggggggggggggggggggggggggggggggghhhhhhhhhhhhiiiiiiiiijjjjjjjkkkkkkkllllllmmmmmnnnnnooooopppppqqqqrrrrrssssttttuuuuvvvvwwwwxxxxyyyyzzzz+..+
(PID.TID 0000.0001) //    181 +..+zzzzyyyyxxxxwwwwvvvvuuuuttttssssrrrrqqqqqppppooooonnnnnmmmmmmlllllkkkkkkkjjjjjjjiiiiiiiihhhhhhhhhhhgggggggggggggggggggggggggggggggggggggggggggggghhhhhhhhhhhiiiiiiiijjjjjjjkkkkkkklllllmmmmmmnnnnnoooooppppqqqqqrrrrssssttttuuuuvvvvwwwwxxxxyyyyzzzz+..+
(PID.TID 0000.0001) //    180 +..+zzzzyyyyxxxxwwwvvvvuuuuttttsssssrrrrqqqqpppppooooonnnnmmmmmmlllllkkkkkkjjjjjjjiiiiiiiihhhhhhhhhhggggggggggggggggggffffffffffffffffgggggggggggggggggghhhhhhhhhhiiiiiiiijjjjjjjkkkkkklllllmmmmmmnnnnooooopppppqqqqrrrrsssssttttuuuuvvvvwwwxxxxyyyyzzzz+..+
(PID.TID 0000.0001) //    179 +..+zzzzyyyyxxxwwwwvvvvuuuuttttssssrrrrqqqqqppppooooonnnnnmmmmmlllllkkkkkkjjjjjjjiiiiiiihhhhhhhhhhggggggggggggggffffffffffffffffffffffffffffgggggggggggggghhhhhhhhhhiiiiiiijjjjjjjkkkkkklllllmmmmmnnnnnoooooppppqqqqqrrrrssssttttuuuuvvvvwwwwxxxyyyyzzzz+..+
(PID.TID 0000.0001) //    178 +..+zzzzyyyxxxxwwwwvvvvuuuuttttssssrrrrqqqqpppppoooonnnnnmmmmmlllllkkkkkkjjjjjjjiiiiiiihhhhhhhhhggggggggggggffffffffffffffffffffffffffffffffffffgggggggggggghhhhhhhhhiiiiiiijjjjjjjkkkkkklllllmmmmmnnnnnoooopppppqqqqrrrrssssttttuuuuvvvvwwwwxxxxyyyzzzz+..+
(PID.TID 0000.0001) //    177 +..+zzzzyyyxxxxwwwwvvvvuuuuttttssssrrrrqqqqppppooooonnnnmmmmmllllllkkkkkjjjjjjiiiiiiihhhhhhhhhgggggggggggffffffffffffffffffffffffffffffffffffffffffggggggggggghhhhhhhhhiiiiiiijjjjjjkkkkkllllllmmmmmnnnnoooooppppqqqqrrrrssssttttuuuuvvvvwwwwxxxxyyyzzzz+..+
(PID.TID 0000.0001) //    176 +..+zzzzyyyxxxxwwwwvvvuuuuttttssssrrrrqqqqpppppoooonnnnnmmmmmlllllkkkkkjjjjjjiiiiiiihhhhhhhhggggggggggffffffffffffffffffffffffffffffffffffffffffffffffgggggggggghhhhhhhhiiiiiiijjjjjjkkkkklllllmmmmmnnnnnoooopppppqqqqrrrrssssttttuuuuvvvwwwwxxxxyyyzzzz+..+
(PID.TID 0000.0001) //    175 +..+zzzzyyyxxxxwwwwvvvuuuuttttssssrrrrqqqqppppooooonnnnmmmmmlllllkkkkkjjjjjjiiiiiiihhhhhhhggggggggggffffffffffffffffeeeeeeeeeeeeeeeeeeeeffffffffffffffffgggggggggghhhhhhhiiiiiiijjjjjjkkkkklllllmmmmmnnnnoooooppppqqqqrrrrssssttttuuuuvvvwwwwxxxxyyyzzzz+..+
(PID.TID 0000.0001) //    174 +..+zzzyyyyxxxxwwwvvvvuuuuttttssssrrrrqqqqppppoooonnnnnmmmmlllllkkkkkkjjjjjiiiiiiihhhhhhhgggggggggffffffffffffffeeeeeeeeeeeeeeeeeeeeeeeeeeeeffffffffffffffggggggggghhhhhhhiiiiiiijjjjjkkkkkklllllmmmmnnnnnooooppppqqqqrrrrssssttttuuuuvvvvwwwxxxxyyyyzzz+..+
(PID.TID 0000.0001) //    173 +..+zzzyyyyxxxxwwwvvvvuuuutttssssrrrrqqqqppppooooonnnnmmmmmlllllkkkkkjjjjjiiiiiiihhhhhhhggggggggffffffffffffeeeeeeeeeeeeeeeeeeeeeeeeeeeeeeeeeeeeffffffffffffgggggggghhhhhhhiiiiiiijjjjjkkkkklllllmmmmmnnnnoooooppppqqqqrrrrsssstttuuuuvvvvwwwxxxxyyyyzzz+..+
(PID.TID 0000.0001) //    172 +..+zzzyyyyxxxwwwwvvvvuuuttttssssrrrrqqqqppppoooonnnnmmmmmlllllkkkkkjjjjjiiiiiihhhhhhhggggggggfffffffffffeeeeeeeeeeeeeeeeeeeeeeeeeeeeeeeeeeeeeeeeeefffffffffffgggggggghhhhhhhiiiiiijjjjjkkkkklllllmmmmmnnnnooooppppqqqqrrrrssssttttuuuvvvvwwwwxxxyyyyzzz+..+
(PID.TID 0000.0001) //    171 +..+zzzyyyyxxxwwwwvvvvuuuttttssssrrrrqqqppppooooonnnnmmmmlllllkkkkkjjjjjjiiiiihhhhhhhggggggggffffffffffeeeeeeeeeeeeeeeeeeeeeeeeeeeeeeeeeeeeeeeeeeeeeeffffffffffgggggggghhhhhhhiiiiijjjjjjkkkkklllllmmmmnnnnoooooppppqqqrrrrssssttttuuuvvvvwwwwxxxyyyyzzz+..+
(PID.TID 0000.0001) //    170 +..+zzzyyyyxxxwwwwvvvuuuuttttsssrrrrqqqqppppoooonnnnmmmmmlllllkkkkjjjjjjiiiiiihhhhhhgggggggffffffffffeeeeeeeeeeeeeeeeddddddddddddddddddeeeeeeeeeeeeeeeeffffffffffggggggghhhhhhiiiiiijjjjjjkkkklllllmmmmmnnnnooooppppqqqqrrrrsssttttuuuuvvvwwwwxxxyyyyzzz+..+
(PID.TID 0000.0001) //    169 +..+zzzyyyyxxxwwwwvvvuuuutttssssrrrrqqqqppppoooonnnnmmmmlllllkkkkkjjjjjiiiiiihhhhhhgggggggfffffffffeeeeeeeeeeeeeeddddddddddddddddddddddddddeeeeeeeeeeeeeefffffffffggggggghhhhhhiiiiiijjjjjkkkkklllllmmmmnnnnooooppppqqqqrrrrsssstttuuuuvvvwwwwxxxyyyyzzz+..+
(PID.TID 0000.0001) //    168 +..+zzzyyyyxxxwwwwvvvuuuutttssssrrrrqqqppppoooonnnnnmmmmllllkkkkkjjjjjiiiiiihhhhhhgggggggffffffffeeeeeeeeeeeeddddddddddddddddddddddddddddddddddeeeeeeeeeeeeffffffffggggggghhhhhhiiiiiijjjjjkkkkkllllmmmmnnnnnooooppppqqqrrrrsssstttuuuuvvvwwwwxxxyyyyzzz+..+
(PID.TID 0000.0001) //    167 +..+zzzyyyyxxxwwwvvvvuuuttttssssrrrqqqqppppoooonnnnmmmmlllllkkkkkjjjjjiiiiihhhhhhgggggggffffffffeeeeeeeeeeeddddddddddddddddddddddddddddddddddddddeeeeeeeeeeeffffffffggggggghhhhhhiiiiijjjjjkkkkklllllmmmmnnnnooooppppqqqqrrrssssttttuuuvvvvwwwxxxyyyyzzz+..+
(PID.TID 0000.0001) //    166 +..+zzzyyyxxxxwwwvvvvuuuttttsssrrrrqqqqppppoooonnnnmmmmllllkkkkkjjjjjiiiiihhhhhhgggggggfffffffeeeeeeeeeeeddddddddddddddddddddddddddddddddddddddddddeeeeeeeeeeefffffffggggggghhhhhhiiiiijjjjjkkkkkllllmmmmnnnnooooppppqqqqrrrrsssttttuuuvvvvwwwxxxxyyyzzz+..+
(PID.TID 0000.0001) //    165 +..+zzzyyyxxxxwwwvvvvuuuttttsssrrrrqqqqpppoooonnnnmmmmlllllkkkkjjjjjiiiiihhhhhhgggggggfffffffeeeeeeeeeedddddddddddddddddddccccccccdddddddddddddddddddeeeeeeeeeefffffffggggggghhhhhhiiiiijjjjjkkkklllllmmmmnnnnoooopppqqqqrrrrsssttttuuuvvvvwwwxxxxyyyzzz+..+
(PID.TID 0000.0001) //    164 +..+zzzyyyxxxxwwwvvvvuuutttssssrrrrqqqppppoooonnnnmmmmllllkkkkkjjjjjiiiiihhhhhgggggggfffffffeeeeeeeeedddddddddddddddccccccccccccccccccccdddddddddddddddeeeeeeeeefffffffggggggghhhhhiiiiijjjjjkkkkkllllmmmmnnnnooooppppqqqrrrrsssstttuuuvvvvwwwxxxxyyyzzz+..+
(PID.TID 0000.0001) //    163 +..+zzzyyyxxxxwwwvvvuuuutttssssrrrqqqqppppoooonnnnmmmmllllkkkkjjjjjiiiiihhhhhhggggggfffffffeeeeeeeedddddddddddddccccccccccccccccccccccccccccdddddddddddddeeeeeeeefffffffgggggghhhhhhiiiiijjjjjkkkkllllmmmmnnnnooooppppqqqqrrrsssstttuuuuvvvwwwxxxxyyyzzz+..+
(PID.TID 0000.0001) //    162 +..+zzzyyyxxxxwwwvvvuuuutttssssrrrqqqqpppoooonnnnmmmmllllkkkkkjjjjiiiiihhhhhhggggggfffffffeeeeeeeeddddddddddddccccccccccccccccccccccccccccccccddddddddddddeeeeeeeefffffffgggggghhhhhhiiiiijjjjkkkkkllllmmmmnnnnoooopppqqqqrrrsssstttuuuuvvvwwwxxxxyyyzzz+..+
(PID.TID 0000.0001) //    161 +..+zzzyyyxxxxwwwvvvuuuutttsssrrrrqqqqpppoooonnnnmmmmllllkkkkjjjjjiiiiihhhhhggggggfffffffeeeeeeeeddddddddddccccccccccccccccccccccccccccccccccccccddddddddddeeeeeeeefffffffgggggghhhhhiiiiijjjjjkkkkllllmmmmnnnnoooopppqqqqrrrrssstttuuuuvvvwwwxxxxyyyzzz+..+
(PID.TID 0000.0001) //    160 +..+zzzyyyxxxwwwwvvvuuuttttsssrrrrqqqppppoooonnnmmmmlllllkkkkjjjjiiiiihhhhhggggggfffffffeeeeeeedddddddddddccccccccccccccccccccccccccccccccccccccccdddddddddddeeeeeeefffffffgggggghhhhhiiiiijjjjkkkklllllmmmmnnnooooppppqqqrrrrsssttttuuuvvvwwwwxxxyyyzzz+..+
(PID.TID 0000.0001) //    159 +..+zzzyyyxxxwwwwvvvuuuttttsssrrrrqqqppppooonnnnmmmmllllkkkkjjjjjiiiiihhhhhgggggfffffffeeeeeeeddddddddddccccccccccccccccccccccccccccccccccccccccccccddddddddddeeeeeeefffffffggggghhhhhiiiiijjjjjkkkkllllmmmmnnnnoooppppqqqrrrrsssttttuuuvvvwwwwxxxyyyzzz+..+
(PID.TID 0000.0001) //    158 +..+zzzyyyxxxwwwwvvvuuutttssssrrrqqqqpppoooonnnnmmmmllllkkkkjjjjiiiiihhhhhggggggffffffeeeeeeedddddddddcccccccccccccccccbbbbbbbbbbbbbbcccccccccccccccccdddddddddeeeeeeeffffffgggggghhhhhiiiiijjjjkkkkllllmmmmnnnnoooopppqqqqrrrsssstttuuuvvvwwwwxxxyyyzzz+..+
(PID.TID 0000.0001) //    157 +..+zzzyyyxxxwwwvvvvuuutttssssrrrqqqqpppoooonnnnmmmllllkkkkkjjjjiiiiihhhhhgggggffffffeeeeeeedddddddddccccccccccccccbbbbbbbbbbbbbbbbbbbbbbccccccccccccccdddddddddeeeeeeeffffffggggghhhhhiiiiijjjjkkkkkllllmmmnnnnoooopppqqqqrrrsssstttuuuvvvvwwwxxxyyyzzz+..+
(PID.TID 0000.0001) //    156 +..+zzzyyyxxxwwwvvvvuuutttssssrrrqqqppppoooonnnmmmmllllkkkkjjjjjiiiihhhhhgggggffffffeeeeeeedddddddddccccccccccccbbbbbbbbbbbbbbbbbbbbbbbbbbbbccccccccccccdddddddddeeeeeeeffffffggggghhhhhiiiijjjjjkkkkllllmmmmnnnooooppppqqqrrrsssstttuuuvvvvwwwxxxyyyzzz+..+
(PID.TID 0000.0001) //    155 +..+zzzyyyxxxwwwvvvvuuutttsssrrrrqqqppppooonnnnmmmmllllkkkkjjjjiiiiihhhhhgggggffffffeeeeeeddddddddccccccccccccbbbbbbbbbbbbbbbbbbbbbbbbbbbbbbbbccccccccccccddddddddeeeeeeffffffggggghhhhhiiiiijjjjkkkkllllmmmmnnnnoooppppqqqrrrrssstttuuuvvvvwwwxxxyyyzzz+..+
(PID.TID 0000.0001) //    154 +..+zzzyyyxxxwwwvvvuuuutttsssrrrrqqqppppooonnnnmmmmlllkkkkkjjjjiiiihhhhhgggggffffffeeeeeeedddddddcccccccccccbbbbbbbbbbbbbbbbbbbbbbbbbbbbbbbbbbbbcccccccccccdddddddeeeeeeeffffffggggghhhhhiiiijjjjkkkkklllmmmmnnnnoooppppqqqrrrrssstttuuuuvvvwwwxxxyyyzzz+..+
(PID.TID 0000.0001) //    153 +..+zzzyyyxxxwwwvvvuuuutttsssrrrqqqqpppoooonnnnmmmllllkkkkjjjjiiiiihhhhhgggggfffffeeeeeeedddddddcccccccccccbbbbbbbbbbbbbbbbbbbbbbbbbbbbbbbbbbbbbbcccccccccccdddddddeeeeeeefffffggggghhhhhiiiiijjjjkkkkllllmmmnnnnoooopppqqqqrrrssstttuuuuvvvwwwxxxyyyzzz+..+
(PID.TID 0000.0001) //    152 +..+zzzyyyxxxwwwvvvuuuttttsssrrrqqqqpppoooonnnmmmmllllkkkkjjjjiiiihhhhhgggggffffffeeeeeedddddddccccccccccbbbbbbbbbbbbbbbbbbbbbbbbbbbbbbbbbbbbbbbbbbccccccccccdddddddeeeeeeffffffggggghhhhhiiiijjjjkkkkllllmmmmnnnoooopppqqqqrrrsssttttuuuvvvwwwxxxyyyzzz+..+
(PID.TID 0000.0001) //    151 +..+zzzyyyxxxwwwvvvuuuttttsssrrrqqqqpppooonnnnmmmmllllkkkkjjjjiiiihhhhhgggggfffffeeeeeeddddddddcccccccccbbbbbbbbbbbbbbbbbbbbbbbbbbbbbbbbbbbbbbbbbbbbcccccccccddddddddeeeeeefffffggggghhhhhiiiijjjjkkkkllllmmmmnnnnooopppqqqqrrrsssttttuuuvvvwwwxxxyyyzzz+..+
(PID.TID 0000.0001) //    150 +..+zzzyyyxxxwwwvvvuuutttssssrrrqqqppppooonnnnmmmmlllkkkkjjjjiiiiihhhhgggggffffffeeeeeedddddddcccccccccbbbbbbbbbbbbbbbbaaaaaaaaaaaaaabbbbbbbbbbbbbbbbcccccccccdddddddeeeeeeffffffggggghhhhiiiiijjjjkkkklllmmmmnnnnoooppppqqqrrrsssstttuuuvvvwwwxxxyyyzzz+..+
(PID.TID 0000.0001) //    149 +..+zzzyyyxxxwwwvvvuuutttssssrrrqqqppppooonnnnmmmllllkkkkjjjjiiiihhhhhgggggfffffeeeeeedddddddcccccccccbbbbbbbbbbbbbbaaaaaaaaaaaaaaaaaaaabbbbbbbbbbbbbbcccccccccdddddddeeeeeefffffggggghhhhhiiiijjjjkkkkllllmmmnnnnoooppppqqqrrrsssstttuuuvvvwwwxxxyyyzzz+..+
(PID.TID 0000.0001) //    148 +..+zzzyyyxxxwwwvvvuuutttssssrrrqqqpppoooonnnmmmmllllkkkkjjjjiiiihhhhhggggffffffeeeeeeddddddcccccccccbbbbbbbbbbbbbaaaaaaaaaaaaaaaaaaaaaaaabbbbbbbbbbbbbcccccccccddddddeeeeeeffffffgggghhhhhiiiijjjjkkkkllllmmmmnnnoooopppqqqrrrsssstttuuuvvvwwwxxxyyyzzz+..+
(PID.TID 0000.0001) //    147 +..+zzzyyyxxxwwwvvvuuutttsssrrrrqqqpppoooonnnmmmmllllkkkkjjjjiiiihhhhgggggfffffeeeeeedddddddccccccccbbbbbbbbbbbbaaaaaaaaaaaaaaaaaaaaaaaaaaaabbbbbbbbbbbbccccccccdddddddeeeeeefffffggggghhhhiiiijjjjkkkkllllmmmmnnnoooopppqqqrrrrssstttuuuvvvwwwxxxyyyzzz+..+
(PID.TID 0000.0001) //    146 +..+zzzyyyxxxwwwvvvuuutttsssrrrrqqqpppoooonnnmmmmlllkkkkjjjjiiiihhhhhgggggfffffeeeeeeddddddccccccccbbbbbbbbbbbaaaaaaaaaaaaaaaaaaaaaaaaaaaaaaaabbbbbbbbbbbccccccccddddddeeeeeefffffggggghhhhhiiiijjjjkkkklllmmmmnnnoooopppqqqrrrrssstttuuuvvvwwwxxxyyyzzz+..+
(PID.TID 0000.0001) //    145 +..+zzzyyyxxxwwwvvvuuutttsssrrrqqqqpppooonnnnmmmmlllkkkkjjjjiiiihhhhhggggfffffeeeeeedddddddcccccccbbbbbbbbbbbaaaaaaaaaaaaaaaaaaaaaaaaaaaaaaaaaabbbbbbbbbbbcccccccdddddddeeeeeefffffgggghhhhhiiiijjjjkkkklllmmmmnnnnooopppqqqqrrrssstttuuuvvvwwwxxxyyyzzz+..+
(PID.TID 0000.0001) //    144 +..+zzzyyyxxxwwwvvvuuutttsssrrrqqqqpppooonnnnmmmllllkkkkjjjjiiiihhhhgggggfffffeeeeeeddddddccccccccbbbbbbbbbbaaaaaaaaaaaaaaaaaaaaaaaaaaaaaaaaaaaabbbbbbbbbbccccccccddddddeeeeeefffffggggghhhhiiiijjjjkkkkllllmmmnnnnooopppqqqqrrrssstttuuuvvvwwwxxxyyyzzz+..+
(PID.TID 0000.0001) //    143 +..+zzzyyyxxxwwwvvvuuutttsssrrrqqqppppooonnnnmmmllllkkkkjjjjiiiihhhhgggggfffffeeeeeddddddccccccccbbbbbbbbbbaaaaaaaaaaaaaaaaaaaaaaaaaaaaaaaaaaaaaabbbbbbbbbbccccccccddddddeeeeefffffggggghhhhiiiijjjjkkkkllllmmmnnnnoooppppqqqrrrssstttuuuvvvwwwxxxyyyzzz+..+
(PID.TID 0000.0001) //    142 +..+zzzyyyxxxwwwvvvuuutttsssrrrqqqppppooonnnmmmmllllkkkjjjjiiiihhhhhggggfffffeeeeeeddddddcccccccbbbbbbbbbbaaaaaaaaaaaaaaaaaaaaaaaaaaaaaaaaaaaaaaaabbbbbbbbbbcccccccddddddeeeeeefffffgggghhhhhiiiijjjjkkkllllmmmmnnnoooppppqqqrrrssstttuuuvvvwwwxxxyyyzzz+..+
(PID.TID 0000.0001) //    141 +..+zzzyyyxxxwwwvvvuuutttsssrrrqqqppppooonnnmmmmllllkkkjjjjiiiihhhhhggggfffffeeeeedddddddcccccccbbbbbbbbbaaaaaaaaaaaaaaaaaaaaaaaaaaaaaaaaaaaaaaaaaabbbbbbbbbcccccccdddddddeeeeefffffgggghhhhhiiiijjjjkkkllllmmmmnnnoooppppqqqrrrssstttuuuvvvwwwxxxyyyzzz+..+
(PID.TID 0000.0001) //    140 +..+zzzyyxxxwwwwvvvuuutttsssrrrqqqpppoooonnnmmmmlllkkkkjjjjiiiihhhhgggggfffffeeeeeddddddcccccccbbbbbbbbbaaaaaaaaaaaaaaaaaaaaaaaaaaaaaaaaaaaaaaaaaaaabbbbbbbbbcccccccddddddeeeeefffffggggghhhhiiiijjjjkkkklllmmmmnnnoooopppqqqrrrssstttuuuvvvwwwwxxxyyzzz+..+
(PID.TID 0000.0001) //    139 +..+zzyyyxxxwwwvvvuuuutttsssrrrqqqpppoooonnnmmmmlllkkkkjjjjiiiihhhhgggggfffffeeeeeddddddcccccccbbbbbbbbbaaaaaaaaaaaaaaaaa----------aaaaaaaaaaaaaaaaabbbbbbbbbcccccccddddddeeeeefffffggggghhhhiiiijjjjkkkklllmmmmnnnoooopppqqqrrrssstttuuuuvvvwwwxxxyyyzz+..+
(PID.TID 0000.0001) //    138 +..+zzyyyxxxwwwvvvuuuutttsssrrrqqqpppoooonnnmmmmlllkkkkjjjjiiiihhhhggggfffffeeeeeedddddcccccccbbbbbbbbbaaaaaaaaaaaaaaaa--------------aaaaaaaaaaaaaaaabbbbbbbbbcccccccdddddeeeeeefffffgggghhhhiiiijjjjkkkklllmmmmnnnoooopppqqqrrrssstttuuuuvvvwwwxxxyyyzz+..+
(PID.TID 0000.0001) //    137 +..+zzyyyxxxwwwvvvuuuttttsssrrrqqqpppoooonnnmmmllllkkkkjjjjiiiihhhhggggfffffeeeeeddddddcccccccbbbbbbbbbaaaaaaaaaaaaaa------------------aaaaaaaaaaaaaabbbbbbbbbcccccccddddddeeeeefffffgggghhhhiiiijjjjkkkkllllmmmnnnoooopppqqqrrrsssttttuuuvvvwwwxxxyyyzz+..+
(PID.TID 0000.0001) //    136 +..+zzyyyxxxwwwvvvuuutttssssrrrqqqpppooonnnnmmmllllkkkkjjjiiiihhhhhggggfffffeeeeeddddddcccccccbbbbbbbbaaaaaaaaaaaaaa--------------------aaaaaaaaaaaaaabbbbbbbbcccccccddddddeeeeefffffgggghhhhhiiiijjjkkkkllllmmmnnnnooopppqqqrrrsssstttuuuvvvwwwxxxyyyzz+..+
(PID.TID 0000.0001) //    135 +..+zzyyyxxxwwwvvvuuutttssssrrrqqqpppooonnnnmmmllllkkkjjjjiiiihhhhgggggfffffeeeeeddddddccccccbbbbbbbbbaaaaaaaaaaaaa----------------------aaaaaaaaaaaaabbbbbbbbbccccccddddddeeeeefffffggggghhhhiiiijjjjkkkllllmmmnnnnooopppqqqrrrsssstttuuuvvvwwwxxxyyyzz+..+
(PID.TID 0000.0001) //    134 +..+zzyyyxxxwwwvvvuuutttsssrrrrqqqpppooonnnnmmmllllkkkjjjjiiiihhhhgggggffffeeeeeedddddcccccccbbbbbbbbaaaaaaaaaaaaa------------------------aaaaaaaaaaaaabbbbbbbbcccccccdddddeeeeeeffffggggghhhhiiiijjjjkkkllllmmmnnnnooopppqqqrrrrssstttuuuvvvwwwxxxyyyzz+..+
(PID.TID 0000.0001) //    133 z..zzzyyyxxxwwwvvvuuutttsssrrrrqqqpppooonnnnmmmllllkkkjjjjiiiihhhhgggggffffeeeeeddddddcccccccbbbbbbbbaaaaaaaaaaaa--------------------------aaaaaaaaaaaabbbbbbbbcccccccddddddeeeeeffffggggghhhhiiiijjjjkkkllllmmmnnnnooopppqqqrrrrssstttuuuvvvwwwxxxyyyzzz..z
(PID.TID 0000.0001) //    132 z..zzzyyyxxxwwwvvvuuutttsssrrrrqqqpppooonnnnmmmllllkkkjjjjiiiihhhhggggfffffeeeeeddddddcccccccbbbbbbbbaaaaaaaaaaaa--------------------------aaaaaaaaaaaabbbbbbbbcccccccddddddeeeeefffffgggghhhhiiiijjjjkkkllllmmmnnnnooopppqqqrrrrssstttuuuvvvwwwxxxyyyzzz..z
(PID.TID 0000.0001) //    131 z..zzzyyyxxxwwwvvvuuutttsssrrrrqqqpppooonnnnmmmlllkkkkjjjjiiiihhhhggggfffffeeeeeddddddccccccbbbbbbbbaaaaaaaaaaaa----------------------------aaaaaaaaaaaabbbbbbbbccccccddddddeeeeefffffgggghhhhiiiijjjjkkkklllmmmnnnnooopppqqqrrrrssstttuuuvvvwwwxxxyyyzzz..z
(PID.TID 0000.0001) //    130 z..zzzyyyxxxwwwvvvuuutttsssrrrqqqqpppooonnnmmmmlllkkkkjjjjiiiihhhhggggfffffeeeeeddddddccccccbbbbbbbbaaaaaaaaaaaa----------------------------aaaaaaaaaaaabbbbbbbbccccccddddddeeeeefffffgggghhhhiiiijjjjkkkklllmmmmnnnooopppqqqqrrrssstttuuuvvvwwwxxxyyyzzz..z
(PID.TID 0000.0001) //    129 z..zzzyyyxxxwwwvvvuuutttsssrrrqqqqpppooonnnmmmmlllkkkkjjjjiiiihhhhggggfffffeeeeeddddddccccccbbbbbbbbaaaaaaaaaaa------------------------------aaaaaaaaaaabbbbbbbbccccccddddddeeeeefffffgggghhhhiiiijjjjkkkklllmmmmnnnooopppqqqqrrrssstttuuuvvvwwwxxxyyyzzz..z
(PID.TID 0000.0001) //    128 z..zzzyyyxxxwwwvvvuuutttsssrrrqqqqpppooonnnmmmmlllkkkkjjjjiiiihhhhggggfffffeeeeedddddcccccccbbbbbbbbaaaaaaaaaaa------------------------------aaaaaaaaaaabbbbbbbbcccccccdddddeeeeefffffgggghhhhiiiijjjjkkkklllmmmmnnnooopppqqqqrrrssstttuuuvvvwwwxxxyyyzzz..z
(PID.TID 0000.0001) //    127 z..zzzyyyxxxwwwvvvuuutttsssrrrqqqqpppooonnnmmmmlllkkkkjjjjiiiihhhhggggfffffeeeeedddddcccccccbbbbbbbbaaaaaaaaaaa------------------------------aaaaaaaaaaabbbbbbbbcccccccdddddeeeeefffffgggghhhhiiiijjjjkkkklllmmmmnnnooopppqqqqrrrssstttuuuvvvwwwxxxyyyzzz..z
(PID.TID 0000.0001) //    126 z..zzzyyyxxxwwwvvvuuutttsssrrrqqqqpppooonnnmmmmlllkkkkjjjjiiiihhhhggggfffffeeeeedddddcccccccbbbbbbbbaaaaaaaaaaa------------------------------aaaaaaaaaaabbbbbbbbcccccccdddddeeeeefffffgggghhhhiiiijjjjkkkklllmmmmnnnooopppqqqqrrrssstttuuuvvvwwwxxxyyyzzz..z
(PID.TID 0000.0001) //    125 z..zzzyyyxxxwwwvvvuuutttsssrrrqqqqpppooonnnmmmmlllkkkkjjjjiiiihhhhggggfffffeeeeedddddcccccccbbbbbbbbaaaaaaaaaaa------------------------------aaaaaaaaaaabbbbbbbbcccccccdddddeeeeefffffgggghhhhiiiijjjjkkkklllmmmmnnnooopppqqqqrrrssstttuuuvvvwwwxxxyyyzzz..z
(PID.TID 0000.0001) //    124 z..zzzyyyxxxwwwvvvuuutttsssrrrqqqqpppooonnnmmmmlllkkkkjjjjiiiihhhhggggfffffeeeeedddddcccccccbbbbbbbbaaaaaaaaaaa------------------------------aaaaaaaaaaabbbbbbbbcccccccdddddeeeeefffffgggghhhhiiiijjjjkkkklllmmmmnnnooopppqqqqrrrssstttuuuvvvwwwxxxyyyzzz..z
(PID.TID 0000.0001) //    123 z..zzzyyyxxxwwwvvvuuutttsssrrrqqqqpppooonnnmmmmlllkkkkjjjjiiiihhhhggggfffffeeeeedddddcccccccbbbbbbbbaaaaaaaaaaa------------------------------aaaaaaaaaaabbbbbbbbcccccccdddddeeeeefffffgggghhhhiiiijjjjkkkklllmmmmnnnooopppqqqqrrrssstttuuuvvvwwwxxxyyyzzz..z
(PID.TID 0000.0001) //    122 z..zzzyyyxxxwwwvvvuuutttsssrrrqqqqpppooonnnmmmmlllkkkkjjjjiiiihhhhggggfffffeeeeedddddcccccccbbbbbbbbaaaaaaaaaaa------------------------------aaaaaaaaaaabbbbbbbbcccccccdddddeeeeefffffgggghhhhiiiijjjjkkkklllmmmmnnnooopppqqqqrrrssstttuuuvvvwwwxxxyyyzzz..z
(PID.TID 0000.0001) //    121 z..zzzyyyxxxwwwvvvuuutttsssrrrqqqqpppooonnnmmmmlllkkkkjjjjiiiihhhhggggfffffeeeeedddddcccccccbbbbbbbbaaaaaaaaaaa------------------------------aaaaaaaaaaabbbbbbbbcccccccdddddeeeeefffffgggghhhhiiiijjjjkkkklllmmmmnnnooopppqqqqrrrssstttuuuvvvwwwxxxyyyzzz..z
(PID.TID 0000.0001) //    120 z..zzzyyyxxxwwwvvvuuutttsssrrrqqqqpppooonnnmmmmlllkkkkjjjjiiiihhhhggggfffffeeeeeddddddccccccbbbbbbbbaaaaaaaaaaa------------------------------aaaaaaaaaaabbbbbbbbccccccddddddeeeeefffffgggghhhhiiiijjjjkkkklllmmmmnnnooopppqqqqrrrssstttuuuvvvwwwxxxyyyzzz..z
(PID.TID 0000.0001) //    119 z..zzzyyyxxxwwwvvvuuutttsssrrrqqqqpppooonnnmmmmlllkkkkjjjjiiiihhhhggggfffffeeeeeddddddccccccbbbbbbbbaaaaaaaaaaaa----------------------------aaaaaaaaaaaabbbbbbbbccccccddddddeeeeefffffgggghhhhiiiijjjjkkkklllmmmmnnnooopppqqqqrrrssstttuuuvvvwwwxxxyyyzzz..z
(PID.TID 0000.0001) //    118 z..zzzyyyxxxwwwvvvuuutttsssrrrrqqqpppooonnnnmmmlllkkkkjjjjiiiihhhhggggfffffeeeeeddddddccccccbbbbbbbbaaaaaaaaaaaa----------------------------aaaaaaaaaaaabbbbbbbbccccccddddddeeeeefffffgggghhhhiiiijjjjkkkklllmmmnnnnooopppqqqrrrrssstttuuuvvvwwwxxxyyyzzz..z
(PID.TID 0000.0001) //    117 z..zzzyyyxxxwwwvvvuuutttsssrrrrqqqpppooonnnnmmmllllkkkjjjjiiiihhhhggggfffffeeeeeddddddcccccccbbbbbbbbaaaaaaaaaaaa--------------------------aaaaaaaaaaaabbbbbbbbcccccccddddddeeeeefffffgggghhhhiiiijjjjkkkllllmmmnnnnooopppqqqrrrrssstttuuuvvvwwwxxxyyyzzz..z
(PID.TID 0000.0001) //    116 z..zzzyyyxxxwwwvvvuuutttsssrrrrqqqpppooonnnnmmmllllkkkjjjjiiiihhhhgggggffffeeeeeddddddcccccccbbbbbbbbaaaaaaaaaaaa--------------------------aaaaaaaaaaaabbbbbbbbcccccccddddddeeeeeffffggggghhhhiiiijjjjkkkllllmmmnnnnooopppqqqrrrrssstttuuuvvvwwwxxxyyyzzz..z
(PID.TID 0000.0001) //    115 +..+zzyyyxxxwwwvvvuuutttsssrrrrqqqpppooonnnnmmmllllkkkjjjjiiiihhhhgggggffffeeeeeedddddcccccccbbbbbbbbaaaaaaaaaaaaa------------------------aaaaaaaaaaaaabbbbbbbbcccccccdddddeeeeeeffffggggghhhhiiiijjjjkkkllllmmmnnnnooopppqqqrrrrssstttuuuvvvwwwxxxyyyzz+..+
(PID.TID 0000.0001) //    114 +..+zzyyyxxxwwwvvvuuutttssssrrrqqqpppooonnnnmmmllllkkkjjjjiiiihhhhgggggfffffeeeeeddddddccccccbbbbbbbbbaaaaaaaaaaaaa----------------------aaaaaaaaaaaaabbbbbbbbbccccccddddddeeeeefffffggggghhhhiiiijjjjkkkllllmmmnnnnooopppqqqrrrsssstttuuuvvvwwwxxxyyyzz+..+
(PID.TID 0000.0001) //    113 +..+zzyyyxxxwwwvvvuuutttssssrrrqqqpppooonnnnmmmllllkkkkjjjiiiihhhhhggggfffffeeeeeddddddcccccccbbbbbbbbaaaaaaaaaaaaaa--------------------aaaaaaaaaaaaaabbbbbbbbcccccccddddddeeeeefffffgggghhhhhiiiijjjkkkkllllmmmnnnnooopppqqqrrrsssstttuuuvvvwwwxxxyyyzz+..+
(PID.TID 0000.0001) //    112 +..+zzyyyxxxwwwvvvuuuttttsssrrrqqqpppoooonnnmmmllllkkkkjjjjiiiihhhhggggfffffeeeeeddddddcccccccbbbbbbbbbaaaaaaaaaaaaaa------------------aaaaaaaaaaaaaabbbbbbbbbcccccccddddddeeeeefffffgggghhhhiiiijjjjkkkkllllmmmnnnoooopppqqqrrrsssttttuuuvvvwwwxxxyyyzz+..+
(PID.TID 0000.0001) //    111 +..+zzyyyxxxwwwvvvuuuutttsssrrrqqqpppoooonnnmmmmlllkkkkjjjjiiiihhhhggggfffffeeeeeedddddcccccccbbbbbbbbbaaaaaaaaaaaaaaaa--------------aaaaaaaaaaaaaaaabbbbbbbbbcccccccdddddeeeeeefffffgggghhhhiiiijjjjkkkklllmmmmnnnoooopppqqqrrrssstttuuuuvvvwwwxxxyyyzz+..+
(PID.TID 0000.0001) //    110 +..+zzyyyxxxwwwvvvuuuutttsssrrrqqqpppoooonnnmmmmlllkkkkjjjjiiiihhhhgggggfffffeeeeeddddddcccccccbbbbbbbbbaaaaaaaaaaaaaaaaa----------aaaaaaaaaaaaaaaaabbbbbbbbbcccccccddddddeeeeefffffggggghhhhiiiijjjjkkkklllmmmmnnnoooopppqqqrrrssstttuuuuvvvwwwxxxyyyzz+..+
(PID.TID 0000.0001) //    109 +..+zzzyyxxxwwwwvvvuuutttsssrrrqqqpppoooonnnmmmmlllkkkkjjjjiiiihhhhgggggfffffeeeeeddddddcccccccbbbbbbbbbaaaaaaaaaaaaaaaaaaaaaaaaaaaaaaaaaaaaaaaaaaaabbbbbbbbbcccccccddddddeeeeefffffggggghhhhiiiijjjjkkkklllmmmmnnnoooopppqqqrrrssstttuuuvvvwwwwxxxyyzzz+..+
(PID.TID 0000.0001) //    108 +..+zzzyyyxxxwwwvvvuuutttsssrrrqqqppppooonnnmmmmllllkkkjjjjiiiihhhhhggggfffffeeeeedddddddcccccccbbbbbbbbbaaaaaaaaaaaaaaaaaaaaaaaaaaaaaaaaaaaaaaaaaabbbbbbbbbcccccccdddddddeeeeefffffgggghhhhhiiiijjjjkkkllllmmmmnnnoooppppqqqrrrssstttuuuvvvwwwxxxyyyzzz+..+
(PID.TID 0000.0001) //    107 +..+zzzyyyxxxwwwvvvuuutttsssrrrqqqppppooonnnmmmmllllkkkjjjjiiiihhhhhggggfffffeeeeeeddddddcccccccbbbbbbbbbbaaaaaaaaaaaaaaaaaaaaaaaaaaaaaaaaaaaaaaaabbbbbbbbbbcccccccddddddeeeeeefffffgggghhhhhiiiijjjjkkkllllmmmmnnnoooppppqqqrrrssstttuuuvvvwwwxxxyyyzzz+..+
(PID.TID 0000.0001) //    106 +..+zzzyyyxxxwwwvvvuuutttsssrrrqqqppppooonnnnmmmllllkkkkjjjjiiiihhhhgggggfffffeeeeeddddddccccccccbbbbbbbbbbaaaaaaaaaaaaaaaaaaaaaaaaaaaaaaaaaaaaaabbbbbbbbbbccccccccddddddeeeeefffffggggghhhhiiiijjjjkkkkllllmmmnnnnoooppppqqqrrrssstttuuuvvvwwwxxxyyyzzz+..+
(PID.TID 0000.0001) //    105 +..+zzzyyyxxxwwwvvvuuutttsssrrrqqqqpppooonnnnmmmllllkkkkjjjjiiiihhhhgggggfffffeeeeeeddddddccccccccbbbbbbbbbbaaaaaaaaaaaaaaaaaaaaaaaaaaaaaaaaaaaabbbbbbbbbbccccccccddddddeeeeeefffffggggghhhhiiiijjjjkkkkllllmmmnnnnooopppqqqqrrrssstttuuuvvvwwwxxxyyyzzz+..+
(PID.TID 0000.0001) //    104 +..+zzzyyyxxxwwwvvvuuutttsssrrrqqqqpppooonnnnmmmmlllkkkkjjjjiiiihhhhhggggfffffeeeeeedddddddcccccccbbbbbbbbbbbaaaaaaaaaaaaaaaaaaaaaaaaaaaaaaaaaabbbbbbbbbbbcccccccdddddddeeeeeefffffgggghhhhhiiiijjjjkkkklllmmmmnnnnooopppqqqqrrrssstttuuuvvvwwwxxxyyyzzz+..+
(PID.TID 0000.0001) //    103 +..+zzzyyyxxxwwwvvvuuutttsssrrrrqqqpppoooonnnmmmmlllkkkkjjjjiiiihhhhhgggggfffffeeeeeeddddddccccccccbbbbbbbbbbbaaaaaaaaaaaaaaaaaaaaaaaaaaaaaaaabbbbbbbbbbbccccccccddddddeeeeeefffffggggghhhhhiiiijjjjkkkklllmmmmnnnoooopppqqqrrrrssstttuuuvvvwwwxxxyyyzzz+..+
(PID.TID 0000.0001) //    102 +..+zzzyyyxxxwwwvvvuuutttsssrrrrqqqpppoooonnnmmmmllllkkkkjjjjiiiihhhhgggggfffffeeeeeedddddddccccccccbbbbbbbbbbbbaaaaaaaaaaaaaaaaaaaaaaaaaaaabbbbbbbbbbbbccccccccdddddddeeeeeefffffggggghhhhiiiijjjjkkkkllllmmmmnnnoooopppqqqrrrrssstttuuuvvvwwwxxxyyyzzz+..+
(PID.TID 0000.0001) //    101 +..+zzzyyyxxxwwwvvvuuutttssssrrrqqqpppoooonnnmmmmllllkkkkjjjjiiiihhhhhggggffffffeeeeeeddddddcccccccccbbbbbbbbbbbbbaaaaaaaaaaaaaaaaaaaaaaaabbbbbbbbbbbbbcccccccccddddddeeeeeeffffffgggghhhhhiiiijjjjkkkkllllmmmmnnnoooopppqqqrrrsssstttuuuvvvwwwxxxyyyzzz+..+
(PID.TID 0000.0001) //    100 +..+zzzyyyxxxwwwvvvuuutttssssrrrqqqppppooonnnnmmmllllkkkkjjjjiiiihhhhhgggggfffffeeeeeedddddddcccccccccbbbbbbbbbbbbbbaaaaaaaaaaaaaaaaaaaabbbbbbbbbbbbbbcccccccccdddddddeeeeeefffffggggghhhhhiiiijjjjkkkkllllmmmnnnnoooppppqqqrrrsssstttuuuvvvwwwxxxyyyzzz+..+
(PID.TID 0000.0001) //     99 +..+zzzyyyxxxwwwvvvuuutttssssrrrqqqppppooonnnnmmmmlllkkkkjjjjiiiiihhhhgggggffffffeeeeeedddddddcccccccccbbbbbbbbbbbbbbbbaaaaaaaaaaaaaabbbbbbbbbbbbbbbbcccccccccdddddddeeeeeeffffffggggghhhhiiiiijjjjkkkklllmmmmnnnnoooppppqqqrrrsssstttuuuvvvwwwxxxyyyzzz+..+
(PID.TID 0000.0001) //     98 +..+zzzyyyxxxwwwvvvuuuttttsssrrrqqqqpppooonnnnmmmmllllkkkkjjjjiiiihhhhhgggggfffffeeeeeeddddddddcccccccccbbbbbbbbbbbbbbbbbbbbbbbbbbbbbbbbbbbbbbbbbbbbcccccccccddddddddeeeeeefffffggggghhhhhiiiijjjjkkkkllllmmmmnnnnooopppqqqqrrrsssttttuuuvvvwwwxxxyyyzzz+..+
(PID.TID 0000.0001) //     97 +..+zzzyyyxxxwwwvvvuuuttttsssrrrqqqqpppoooonnnmmmmllllkkkkjjjjiiiihhhhhgggggffffffeeeeeedddddddccccccccccbbbbbbbbbbbbbbbbbbbbbbbbbbbbbbbbbbbbbbbbbbccccccccccdddddddeeeeeeffffffggggghhhhhiiiijjjjkkkkllllmmmmnnnoooopppqqqqrrrsssttttuuuvvvwwwxxxyyyzzz+..+
(PID.TID 0000.0001) //     96 +..+zzzyyyxxxwwwvvvuuuutttsssrrrqqqqpppoooonnnnmmmllllkkkkjjjjiiiiihhhhhgggggfffffeeeeeeedddddddcccccccccccbbbbbbbbbbbbbbbbbbbbbbbbbbbbbbbbbbbbbbcccccccccccdddddddeeeeeeefffffggggghhhhhiiiiijjjjkkkkllllmmmnnnnoooopppqqqqrrrssstttuuuuvvvwwwxxxyyyzzz+..+
(PID.TID 0000.0001) //     95 +..+zzzyyyxxxwwwvvvuuuutttsssrrrrqqqppppooonnnnmmmmlllkkkkkjjjjiiiihhhhhgggggffffffeeeeeeedddddddcccccccccccbbbbbbbbbbbbbbbbbbbbbbbbbbbbbbbbbbbbcccccccccccdddddddeeeeeeeffffffggggghhhhhiiiijjjjkkkkklllmmmmnnnnoooppppqqqrrrrssstttuuuuvvvwwwxxxyyyzzz+..+
(PID.TID 0000.0001) //     94 +..+zzzyyyxxxwwwvvvvuuutttsssrrrrqqqppppooonnnnmmmmllllkkkkjjjjiiiiihhhhhgggggffffffeeeeeeddddddddccccccccccccbbbbbbbbbbbbbbbbbbbbbbbbbbbbbbbbccccccccccccddddddddeeeeeeffffffggggghhhhhiiiiijjjjkkkkllllmmmmnnnnoooppppqqqrrrrssstttuuuvvvvwwwxxxyyyzzz+..+
(PID.TID 0000.0001) //     93 +..+zzzyyyxxxwwwvvvvuuutttssssrrrqqqppppoooonnnmmmmllllkkkkjjjjjiiiihhhhhgggggffffffeeeeeeedddddddddccccccccccccbbbbbbbbbbbbbbbbbbbbbbbbbbbbccccccccccccdddddddddeeeeeeeffffffggggghhhhhiiiijjjjjkkkkllllmmmmnnnooooppppqqqrrrsssstttuuuvvvvwwwxxxyyyzzz+..+
(PID.TID 0000.0001) //     92 +..+zzzyyyxxxwwwvvvvuuutttssssrrrqqqqpppoooonnnnmmmllllkkkkkjjjjiiiiihhhhhgggggffffffeeeeeeedddddddddccccccccccccccbbbbbbbbbbbbbbbbbbbbbbccccccccccccccdddddddddeeeeeeeffffffggggghhhhhiiiiijjjjkkkkkllllmmmnnnnoooopppqqqqrrrsssstttuuuvvvvwwwxxxyyyzzz+..+
(PID.TID 0000.0001) //     91 +..+zzzyyyxxxwwwwvvvuuutttssssrrrqqqqpppoooonnnnmmmmllllkkkkjjjjiiiiihhhhhggggggffffffeeeeeeedddddddddcccccccccccccccccbbbbbbbbbbbbbbcccccccccccccccccdddddddddeeeeeeeffffffgggggghhhhhiiiiijjjjkkkkllllmmmmnnnnoooopppqqqqrrrsssstttuuuvvvwwwwxxxyyyzzz+..+
(PID.TID 0000.0001) //     90 +..+zzzyyyxxxwwwwvvvuuuttttsssrrrrqqqppppooonnnnmmmmllllkkkkjjjjjiiiiihhhhhgggggfffffffeeeeeeeddddddddddccccccccccccccccccccccccccccccccccccccccccccddddddddddeeeeeeefffffffggggghhhhhiiiiijjjjjkkkkllllmmmmnnnnoooppppqqqrrrrsssttttuuuvvvwwwwxxxyyyzzz+..+
(PID.TID 0000.0001) //     89 +..+zzzyyyxxxwwwwvvvuuuttttsssrrrrqqqppppoooonnnmmmmlllllkkkkjjjjiiiiihhhhhggggggfffffffeeeeeeedddddddddddccccccccccccccccccccccccccccccccccccccccdddddddddddeeeeeeefffffffgggggghhhhhiiiiijjjjkkkklllllmmmmnnnooooppppqqqrrrrsssttttuuuvvvwwwwxxxyyyzzz+..+
(PID.TID 0000.0001) //     88 +..+zzzyyyxxxxwwwvvvuuuutttsssrrrrqqqqpppoooonnnnmmmmllllkkkkjjjjjiiiiihhhhhggggggfffffffeeeeeeeeddddddddddccccccccccccccccccccccccccccccccccccccddddddddddeeeeeeeefffffffgggggghhhhhiiiiijjjjjkkkkllllmmmmnnnnoooopppqqqqrrrrssstttuuuuvvvwwwxxxxyyyzzz+..+
(PID.TID 0000.0001) //     87 +..+zzzyyyxxxxwwwvvvuuuutttssssrrrqqqqpppoooonnnnmmmmllllkkkkkjjjjiiiiihhhhhhggggggfffffffeeeeeeeeddddddddddddccccccccccccccccccccccccccccccccddddddddddddeeeeeeeefffffffgggggghhhhhhiiiiijjjjkkkkkllllmmmmnnnnoooopppqqqqrrrsssstttuuuuvvvwwwxxxxyyyzzz+..+
(PID.TID 0000.0001) //     86 +..+zzzyyyxxxxwwwvvvuuuutttssssrrrqqqqppppoooonnnnmmmmllllkkkkjjjjjiiiiihhhhhhggggggfffffffeeeeeeeedddddddddddddccccccccccccccccccccccccccccdddddddddddddeeeeeeeefffffffgggggghhhhhhiiiiijjjjjkkkkllllmmmmnnnnooooppppqqqqrrrsssstttuuuuvvvwwwxxxxyyyzzz+..+
(PID.TID 0000.0001) //     85 +..+zzzyyyxxxxwwwvvvvuuutttssssrrrrqqqppppoooonnnnmmmmllllkkkkkjjjjjiiiiihhhhhgggggggfffffffeeeeeeeeedddddddddddddddccccccccccccccccccccdddddddddddddddeeeeeeeeefffffffggggggghhhhhiiiiijjjjjkkkkkllllmmmmnnnnooooppppqqqrrrrsssstttuuuvvvvwwwxxxxyyyzzz+..+
(PID.TID 0000.0001) //     84 +..+zzzyyyxxxxwwwvvvvuuuttttsssrrrrqqqqpppoooonnnnmmmmlllllkkkkjjjjjiiiiihhhhhhgggggggfffffffeeeeeeeeeedddddddddddddddddddccccccccdddddddddddddddddddeeeeeeeeeefffffffggggggghhhhhhiiiiijjjjjkkkklllllmmmmnnnnoooopppqqqqrrrrsssttttuuuvvvvwwwxxxxyyyzzz+..+
(PID.TID 0000.0001) //     83 +..+zzzyyyxxxxwwwvvvvuuuttttsssrrrrqqqqppppoooonnnnmmmmllllkkkkkjjjjjiiiiihhhhhhgggggggfffffffeeeeeeeeeeeddddddddddddddddddddddddddddddddddddddddddeeeeeeeeeeefffffffggggggghhhhhhiiiiijjjjjkkkkkllllmmmmnnnnooooppppqqqqrrrrsssttttuuuvvvvwwwxxxxyyyzzz+..+
(PID.TID 0000.0001) //     82 +..+zzzyyyyxxxwwwvvvvuuuttttssssrrrqqqqppppoooonnnnmmmmlllllkkkkkjjjjjiiiiihhhhhhgggggggffffffffeeeeeeeeeeeddddddddddddddddddddddddddddddddddddddeeeeeeeeeeeffffffffggggggghhhhhhiiiiijjjjjkkkkklllllmmmmnnnnooooppppqqqqrrrssssttttuuuvvvvwwwxxxyyyyzzz+..+
(PID.TID 0000.0001) //     81 +..+zzzyyyyxxxwwwwvvvuuuutttssssrrrrqqqppppoooonnnnnmmmmllllkkkkkjjjjjiiiiiihhhhhhgggggggffffffffeeeeeeeeeeeeddddddddddddddddddddddddddddddddddeeeeeeeeeeeeffffffffggggggghhhhhhiiiiiijjjjjkkkkkllllmmmmnnnnnooooppppqqqrrrrsssstttuuuuvvvwwwwxxxyyyyzzz+..+
(PID.TID 0000.0001) //     80 +..+zzzyyyyxxxwwwwvvvuuuutttssssrrrrqqqqppppoooonnnnmmmmlllllkkkkkjjjjjiiiiiihhhhhhgggggggfffffffffeeeeeeeeeeeeeeddddddddddddddddddddddddddeeeeeeeeeeeeeefffffffffggggggghhhhhhiiiiiijjjjjkkkkklllllmmmmnnnnooooppppqqqqrrrrsssstttuuuuvvvwwwwxxxyyyyzzz+..+
(PID.TID 0000.0001) //     79 +..+zzzyyyyxxxwwwwvvvuuuuttttsssrrrrqqqqppppoooonnnnmmmmmlllllkkkkjjjjjjiiiiiihhhhhhgggggggffffffffffeeeeeeeeeeeeeeeeddddddddddddddddddeeeeeeeeeeeeeeeeffffffffffggggggghhhhhhiiiiiijjjjjjkkkklllllmmmmmnnnnooooppppqqqqrrrrsssttttuuuuvvvwwwwxxxyyyyzzz+..+
(PID.TID 0000.0001) //     78 +..+zzzyyyyxxxwwwwvvvvuuuttttssssrrrrqqqppppooooonnnnmmmmlllllkkkkkjjjjjjiiiiihhhhhhhggggggggffffffffffeeeeeeeeeeeeeeeeeeeeeeeeeeeeeeeeeeeeeeeeeeeeeeffffffffffgggggggghhhhhhhiiiiijjjjjjkkkkklllllmmmmnnnnoooooppppqqqrrrrssssttttuuuvvvvwwwwxxxyyyyzzz+..+
(PID.TID 0000.0001) //     77 +..+zzzyyyyxxxwwwwvvvvuuuttttssssrrrrqqqqppppoooonnnnmmmmmlllllkkkkkjjjjjiiiiiihhhhhhhggggggggfffffffffffeeeeeeeeeeeeeeeeeeeeeeeeeeeeeeeeeeeeeeeeeefffffffffffgggggggghhhhhhhiiiiiijjjjjkkkkklllllmmmmmnnnnooooppppqqqqrrrrssssttttuuuvvvvwwwwxxxyyyyzzz+..+
(PID.TID 0000.0001) //     76 +..+zzzyyyyxxxxwwwvvvvuuuutttssssrrrrqqqqppppooooonnnnmmmmmlllllkkkkkjjjjjiiiiiiihhhhhhhggggggggffffffffffffeeeeeeeeeeeeeeeeeeeeeeeeeeeeeeeeeeeeffffffffffffgggggggghhhhhhhiiiiiiijjjjjkkkkklllllmmmmmnnnnoooooppppqqqqrrrrsssstttuuuuvvvvwwwxxxxyyyyzzz+..+
(PID.TID 0000.0001) //     75 +..+zzzyyyyxxxxwwwvvvvuuuuttttssssrrrrqqqqppppoooonnnnnmmmmlllllkkkkkkjjjjjiiiiiiihhhhhhhgggggggggffffffffffffffeeeeeeeeeeeeeeeeeeeeeeeeeeeeffffffffffffffggggggggghhhhhhhiiiiiiijjjjjkkkkkklllllmmmmnnnnnooooppppqqqqrrrrssssttttuuuuvvvvwwwxxxxyyyyzzz+..+
(PID.TID 0000.0001) //     74 +..+zzzzyyyxxxxwwwwvvvuuuuttttssssrrrrqqqqppppooooonnnnmmmmmlllllkkkkkjjjjjjiiiiiiihhhhhhhggggggggggffffffffffffffffeeeeeeeeeeeeeeeeeeeeffffffffffffffffgggggggggghhhhhhhiiiiiiijjjjjjkkkkklllllmmmmmnnnnoooooppppqqqqrrrrssssttttuuuuvvvwwwwxxxxyyyzzzz+..+
(PID.TID 0000.0001) //     73 +..+zzzzyyyxxxxwwwwvvvuuuuttttssssrrrrqqqqpppppoooonnnnnmmmmmlllllkkkkkjjjjjjiiiiiiihhhhhhhhggggggggggffffffffffffffffffffffffffffffffffffffffffffffffgggggggggghhhhhhhhiiiiiiijjjjjjkkkkklllllmmmmmnnnnnoooopppppqqqqrrrrssssttttuuuuvvvwwwwxxxxyyyzzzz+..+
(PID.TID 0000.0001) //     72 +..+zzzzyyyxxxxwwwwvvvvuuuuttttssssrrrrqqqqppppooooonnnnmmmmmllllllkkkkkjjjjjjiiiiiiihhhhhhhhhgggggggggggffffffffffffffffffffffffffffffffffffffffffggggggggggghhhhhhhhhiiiiiiijjjjjjkkkkkllllllmmmmmnnnnoooooppppqqqqrrrrssssttttuuuuvvvvwwwwxxxxyyyzzzz+..+
(PID.TID 0000.0001) //     71 +..+zzzzyyyxxxxwwwwvvvvuuuuttttssssrrrrqqqqpppppoooonnnnnmmmmmlllllkkkkkkjjjjjjjiiiiiiihhhhhhhhhggggggggggggffffffffffffffffffffffffffffffffffffgggggggggggghhhhhhhhhiiiiiiijjjjjjjkkkkkklllllmmmmmnnnnnoooopppppqqqqrrrrssssttttuuuuvvvvwwwwxxxxyyyzzzz+..+
(PID.TID 0000.0001) //     70 +..+zzzzyyyyxxxwwwwvvvvuuuuttttssssrrrrqqqqqppppooooonnnnnmmmmmlllllkkkkkkjjjjjjjiiiiiiihhhhhhhhhhggggggggggggggffffffffffffffffffffffffffffgggggggggggggghhhhhhhhhhiiiiiiijjjjjjjkkkkkklllllmmmmmnnnnnoooooppppqqqqqrrrrssssttttuuuuvvvvwwwwxxxyyyyzzzz+..+
(PID.TID 0000.0001) //     69 +..+zzzzyyyyxxxxwwwvvvvuuuuttttsssssrrrrqqqqpppppooooonnnnmmmmmmlllllkkkkkkjjjjjjjiiiiiiiihhhhhhhhhhggggggggggggggggggffffffffffffffffgggggggggggggggggghhhhhhhhhhiiiiiiiijjjjjjjkkkkkklllllmmmmmmnnnnooooopppppqqqqrrrrsssssttttuuuuvvvvwwwxxxxyyyyzzzz+..+
(PID.TID 0000.0001) //     68 +..+zzzzyyyyxxxxwwwwvvvvuuuuttttssssrrrrqqqqqppppooooonnnnnmmmmmmlllllkkkkkkkjjjjjjjiiiiiiiihhhhhhhhhhhgggggggggggggggggggggggggggggggggggggggggggggghhhhhhhhhhhiiiiiiiijjjjjjjkkkkkkklllllmmmmmmnnnnnoooooppppqqqqqrrrrssssttttuuuuvvvvwwwwxxxxyyyyzzzz+..+
(PID.TID 0000.0001) //     67 +..+zzzzyyyyxxxxwwwwvvvvuuuuttttssssrrrrrqqqqpppppooooonnnnnmmmmmllllllkkkkkkkjjjjjjjiiiiiiiiihhhhhhhhhhhhgggggggggggggggggggggggggggggggggggggggghhhhhhhhhhhhiiiiiiiiijjjjjjjkkkkkkkllllllmmmmmnnnnnooooopppppqqqqrrrrrssssttttuuuuvvvvwwwwxxxxyyyyzzzz+..+
(PID.TID 0000.0001) //     66 +..+zzzzyyyyxxxxwwwwvvvvuuuutttttssssrrrrqqqqqpppppooooonnnnnmmmmmllllllkkkkkkkjjjjjjjjiiiiiiiiihhhhhhhhhhhhhhgggggggggggggggggggggggggggggggghhhhhhhhhhhhhhiiiiiiiiijjjjjjjjkkkkkkkllllllmmmmmnnnnnooooopppppqqqqqrrrrsssstttttuuuuvvvvwwwwxxxxyyyyzzzz+..+
(PID.TID 0000.0001) //     65 +..+zzzzyyyyxxxxwwwwvvvvuuuuuttttssssrrrrrqqqqpppppooooonnnnnnmmmmmlllllllkkkkkkjjjjjjjjiiiiiiiiiihhhhhhhhhhhhhhhhhgggggggggggggggggggggghhhhhhhhhhhhhhhhhiiiiiiiiiijjjjjjjjkkkkkklllllllmmmmmnnnnnnooooopppppqqqqrrrrrssssttttuuuuuvvvvwwwwxxxxyyyyzzzz+..+
(PID.TID 0000.0001) //     64 +..+zzzzyyyyxxxxwwwwvvvvvuuuuttttsssssrrrrqqqqqpppppooooonnnnnnmmmmmlllllllkkkkkkkjjjjjjjjiiiiiiiiiiihhhhhhhhhhhhhhhhhhhhhhhhhhhhhhhhhhhhhhhhhhhhhhhhhhiiiiiiiiiiijjjjjjjjkkkkkkklllllllmmmmmnnnnnnooooopppppqqqqqrrrrsssssttttuuuuvvvvvwwwwxxxxyyyyzzzz+..+
(PID.TID 0000.0001) //     63 +..+zzzzyyyyxxxxwwwwwvvvvuuuutttttssssrrrrrqqqqqpppppooooonnnnnnmmmmmmllllllkkkkkkkkjjjjjjjjiiiiiiiiiiiihhhhhhhhhhhhhhhhhhhhhhhhhhhhhhhhhhhhhhhhhhhhiiiiiiiiiiiijjjjjjjjkkkkkkkkllllllmmmmmmnnnnnnooooopppppqqqqqrrrrrsssstttttuuuuvvvvwwwwwxxxxyyyyzzzz+..+
(PID.TID 0000.0001) //     62 +..+zzzzyyyyxxxxxwwwwvvvvuuuuuttttsssssrrrrqqqqqpppppoooooonnnnnnmmmmmmlllllllkkkkkkkjjjjjjjjjjiiiiiiiiiiiiihhhhhhhhhhhhhhhhhhhhhhhhhhhhhhhhhhhhiiiiiiiiiiiiijjjjjjjjjjkkkkkkklllllllmmmmmmnnnnnnoooooopppppqqqqqrrrrsssssttttuuuuuvvvvwwwwxxxxxyyyyzzzz+..+
(PID.TID 0000.0001) //     61 +..+zzzzyyyyyxxxxwwwwvvvvvuuuutttttssssrrrrrqqqqqpppppoooooonnnnnnmmmmmmlllllllkkkkkkkkjjjjjjjjjjiiiiiiiiiiiiiiiiihhhhhhhhhhhhhhhhhhhhhhhhiiiiiiiiiiiiiiiiijjjjjjjjjjkkkkkkkklllllllmmmmmmnnnnnnoooooopppppqqqqqrrrrrsssstttttuuuuvvvvvwwwwxxxxyyyyyzzzz+..+
(PID.TID 0000.0001) //     60 +..+zzzzyyyyyxxxxwwwwvvvvvuuuutttttsssssrrrrrqqqqqpppppoooooonnnnnnmmmmmmllllllllkkkkkkkkjjjjjjjjjjjiiiiiiiiiiiiiiiiiiiiiiiiiiiiiiiiiiiiiiiiiiiiiiiiiiiijjjjjjjjjjjkkkkkkkkllllllllmmmmmmnnnnnnoooooopppppqqqqqrrrrrssssstttttuuuuvvvvvwwwwxxxxyyyyyzzzz+..+
(PID.TID 0000.0001) //     59 +..+zzzzzyyyyxxxxwwwwwvvvvuuuuutttttssssrrrrrqqqqqppppppoooooonnnnnnmmmmmmmlllllllkkkkkkkkkjjjjjjjjjjjjjiiiiiiiiiiiiiiiiiiiiiiiiiiiiiiiiiiiiiiiiiiiijjjjjjjjjjjjjkkkkkkkkklllllllmmmmmmmnnnnnnooooooppppppqqqqqrrrrrsssstttttuuuuuvvvvwwwwwxxxxyyyyzzzzz+..+
(PID.TID 0000.0001) //     58 +..+zzzzzyyyyxxxxxwwwwvvvvvuuuutttttsssssrrrrrqqqqqppppppoooooonnnnnnmmmmmmmllllllllkkkkkkkkkkjjjjjjjjjjjjjjiiiiiiiiiiiiiiiiiiiiiiiiiiiiiiiiiiiijjjjjjjjjjjjjjkkkkkkkkkkllllllllmmmmmmmnnnnnnooooooppppppqqqqqrrrrrssssstttttuuuuvvvvvwwwwxxxxxyyyyzzzzz+..+
(PID.TID 0000.0001) //     57 +..+zzzzzyyyyxxxxxwwwwvvvvvuuuuutttttsssssrrrrrqqqqqppppppoooooonnnnnnmmmmmmmmllllllllkkkkkkkkkkkjjjjjjjjjjjjjjjjjiiiiiiiiiiiiiiiiiiiiiiiijjjjjjjjjjjjjjjjjkkkkkkkkkkkllllllllmmmmmmmmnnnnnnooooooppppppqqqqqrrrrrssssstttttuuuuuvvvvvwwwwxxxxxyyyyzzzzz+..+
(PID.TID 0000.0001) //     56 +..+zzzzzyyyyxxxxxwwwwwvvvvuuuuutttttsssssrrrrrqqqqqqppppppoooooonnnnnnnmmmmmmmlllllllllkkkkkkkkkkkkjjjjjjjjjjjjjjjjjjjjjjjjjjjjjjjjjjjjjjjjjjjjjjjjjjjjkkkkkkkkkkkklllllllllmmmmmmmnnnnnnnooooooppppppqqqqqqrrrrrssssstttttuuuuuvvvvwwwwwxxxxxyyyyzzzzz+..+
(PID.TID 0000.0001) //     55 +..+zzzzzyyyyyxxxxwwwwwvvvvvuuuuutttttsssssrrrrrqqqqqqppppppoooooonnnnnnnmmmmmmmmllllllllllkkkkkkkkkkkkkjjjjjjjjjjjjjjjjjjjjjjjjjjjjjjjjjjjjjjjjjjjjkkkkkkkkkkkkkllllllllllmmmmmmmmnnnnnnnooooooppppppqqqqqqrrrrrssssstttttuuuuuvvvvvwwwwwxxxxyyyyyzzzzz+..+
(PID.TID 0000.0001) //     54 +..+zzzzzyyyyyxxxxwwwwwvvvvvuuuuutttttssssssrrrrrqqqqqqppppppooooooonnnnnnnmmmmmmmmllllllllllkkkkkkkkkkkkkkkjjjjjjjjjjjjjjjjjjjjjjjjjjjjjjjjjjjjkkkkkkkkkkkkkkkllllllllllmmmmmmmmnnnnnnnoooooooppppppqqqqqqrrrrrsssssstttttuuuuuvvvvvwwwwwxxxxyyyyyzzzzz+..+
(PID.TID 0000.0001) //     53 +..+zzzzzyyyyyxxxxxwwwwwvvvvvuuuuutttttsssssrrrrrrqqqqqqppppppooooooonnnnnnnnmmmmmmmmlllllllllllkkkkkkkkkkkkkkkkkkkjjjjjjjjjjjjjjjjjjjjjjkkkkkkkkkkkkkkkkkkklllllllllllmmmmmmmmnnnnnnnnoooooooppppppqqqqqqrrrrrrssssstttttuuuuuvvvvvwwwwwxxxxxyyyyyzzzzz+..+
(PID.TID 0000.0001) //     52 +..+zzzzzyyyyyxxxxxwwwwwvvvvvuuuuuttttttsssssrrrrrrqqqqqqppppppoooooooonnnnnnnmmmmmmmmmmllllllllllllkkkkkkkkkkkkkkkkkkkkkkkkkkkkkkkkkkkkkkkkkkkkkkkkkkkkllllllllllllmmmmmmmmmmnnnnnnnooooooooppppppqqqqqqrrrrrrsssssttttttuuuuuvvvvvwwwwwxxxxxyyyyyzzzzz+..+
(PID.TID 0000.0001) //     51 +..+zzzzzyyyyyxxxxxwwwwwvvvvvvuuuuutttttssssssrrrrrrqqqqqqpppppppooooooonnnnnnnnmmmmmmmmmmllllllllllllllkkkkkkkkkkkkkkkkkkkkkkkkkkkkkkkkkkkkkkkkkkkkllllllllllllllmmmmmmmmmmnnnnnnnnooooooopppppppqqqqqqrrrrrrsssssstttttuuuuuvvvvvvwwwwwxxxxxyyyyyzzzzz+..+
(PID.TID 0000.0001) //     50 +..++zzzzzyyyyyxxxxxwwwwwvvvvvuuuuuttttttssssssrrrrrrqqqqqqpppppppoooooooonnnnnnnnnmmmmmmmmmmlllllllllllllllllkkkkkkkkkkkkkkkkkkkkkkkkkkkkkkkklllllllllllllllllmmmmmmmmmmnnnnnnnnnoooooooopppppppqqqqqqrrrrrrssssssttttttuuuuuvvvvvwwwwwxxxxxyyyyyzzzzz++..+
(PID.TID 0000.0001) //     49 +..++zzzzzyyyyyxxxxxwwwwwvvvvvvuuuuuttttttssssssrrrrrrqqqqqqppppppppoooooooonnnnnnnnnmmmmmmmmmmmmllllllllllllllllllllllkkkkkkkkkkkkkkllllllllllllllllllllllmmmmmmmmmmmmnnnnnnnnnooooooooppppppppqqqqqqrrrrrrssssssttttttuuuuuvvvvvvwwwwwxxxxxyyyyyzzzzz++..+
(PID.TID 0000.0001) //     48 +..++zzzzzyyyyyxxxxxwwwwwwvvvvvuuuuuuttttttssssssrrrrrrqqqqqqqpppppppooooooooonnnnnnnnnnmmmmmmmmmmmmmllllllllllllllllllllllllllllllllllllllllllllllllllmmmmmmmmmmmmmnnnnnnnnnnooooooooopppppppqqqqqqqrrrrrrssssssttttttuuuuuuvvvvvwwwwwwxxxxxyyyyyzzzzz++..+
(PID.TID 0000.0001) //     47 +..++zzzzzyyyyyxxxxxxwwwwwvvvvvvuuuuuttttttsssssssrrrrrrqqqqqqqppppppppooooooooonnnnnnnnnnmmmmmmmmmmmmmmmmllllllllllllllllllllllllllllllllllllllllmmmmmmmmmmmmmmmmnnnnnnnnnnoooooooooppppppppqqqqqqqrrrrrrsssssssttttttuuuuuvvvvvvwwwwwxxxxxxyyyyyzzzzz++..+
(PID.TID 0000.0001) //     46 +..++zzzzzyyyyyyxxxxxwwwwwwvvvvvuuuuuuttttttsssssssrrrrrrqqqqqqqqppppppppooooooooonnnnnnnnnnnnmmmmmmmmmmmmmmmmmmmllllllllllllllllllllllllllmmmmmmmmmmmmmmmmmmmnnnnnnnnnnnnoooooooooppppppppqqqqqqqqrrrrrrsssssssttttttuuuuuuvvvvvwwwwwwxxxxxyyyyyyzzzzz++..+
(PID.TID 0000.0001) //     45 +..++zzzzzyyyyyyxxxxxwwwwwwvvvvvvuuuuuuttttttsssssssrrrrrrrqqqqqqqpppppppppoooooooooonnnnnnnnnnnnnmmmmmmmmmmmmmmmmmmmmmmmmmmmmmmmmmmmmmmmmmmmmmmmmmmmmmmmmnnnnnnnnnnnnnoooooooooopppppppppqqqqqqqrrrrrrrsssssssttttttuuuuuuvvvvvvwwwwwwxxxxxyyyyyyzzzzz++..+
(PID.TID 0000.0001) //     44 +..++zzzzzyyyyyyxxxxxxwwwwwwvvvvvvuuuuuuttttttsssssssrrrrrrrqqqqqqqqpppppppppooooooooooonnnnnnnnnnnnnnmmmmmmmmmmmmmmmmmmmmmmmmmmmmmmmmmmmmmmmmmmmmmmmmnnnnnnnnnnnnnnooooooooooopppppppppqqqqqqqqrrrrrrrsssssssttttttuuuuuuvvvvvvwwwwwwxxxxxxyyyyyyzzzzz++..+
(PID.TID 0000.0001) //     43 +..++zzzzzzyyyyyxxxxxxwwwwwwvvvvvvuuuuuuuttttttsssssssrrrrrrrrqqqqqqqqpppppppppoooooooooooonnnnnnnnnnnnnnnnnmmmmmmmmmmmmmmmmmmmmmmmmmmmmmmmmmmmmnnnnnnnnnnnnnnnnnoooooooooooopppppppppqqqqqqqqrrrrrrrrsssssssttttttuuuuuuuvvvvvvwwwwwwxxxxxxyyyyyzzzzzz++..+
(PID.TID 0000.0001) //     42 +..++zzzzzzyyyyyyxxxxxxwwwwwwvvvvvvuuuuuuuttttttssssssssrrrrrrrqqqqqqqqqppppppppppooooooooooooonnnnnnnnnnnnnnnnnnnnnnnnnmmmmmmmmmmmmnnnnnnnnnnnnnnnnnnnnnnnnnoooooooooooooppppppppppqqqqqqqqqrrrrrrrssssssssttttttuuuuuuuvvvvvvwwwwwwxxxxxxyyyyyyzzzzzz++..+
(PID.TID 0000.0001) //     41 +..++zzzzzzyyyyyyxxxxxxwwwwwwvvvvvvvuuuuuuutttttttsssssssrrrrrrrrqqqqqqqqqpppppppppppoooooooooooooonnnnnnnnnnnnnnnnnnnnnnnnnnnnnnnnnnnnnnnnnnnnnnnnnnnnnnoooooooooooooopppppppppppqqqqqqqqqrrrrrrrrssssssstttttttuuuuuuuvvvvvvvwwwwwwxxxxxxyyyyyyzzzzzz++..+
(PID.TID 0000.0001) //     40 +..++zzzzzzyyyyyyxxxxxxxwwwwwwvvvvvvvuuuuuuutttttttssssssssrrrrrrrrqqqqqqqqqqpppppppppppooooooooooooooooonnnnnnnnnnnnnnnnnnnnnnnnnnnnnnnnnnnnnnnnnnooooooooooooooooopppppppppppqqqqqqqqqqrrrrrrrrsssssssstttttttuuuuuuuvvvvvvvwwwwwwxxxxxxxyyyyyyzzzzzz++..+
(PID.TID 0000.0001) //     39 +..++zzzzzzyyyyyyyxxxxxxwwwwwwwvvvvvvvuuuuuuutttttttssssssssrrrrrrrrrqqqqqqqqqqpppppppppppppoooooooooooooooooooooonnnnnnnnnnnnnnnnnnnnnnnnoooooooooooooooooooooopppppppppppppqqqqqqqqqqrrrrrrrrrsssssssstttttttuuuuuuuvvvvvvvwwwwwwwxxxxxxyyyyyyyzzzzzz++..+
(PID.TID 0000.0001) //     38 +..++zzzzzzzyyyyyyxxxxxxxwwwwwwvvvvvvvuuuuuuuuttttttttssssssssrrrrrrrrrqqqqqqqqqqqpppppppppppppppoooooooooooooooooooooooooooooooooooooooooooooooooooooooooopppppppppppppppqqqqqqqqqqqrrrrrrrrrssssssssttttttttuuuuuuuuvvvvvvvwwwwwwxxxxxxxyyyyyyzzzzzzz++..+
(PID.TID 0000.0001) //     37 +..++zzzzzzzyyyyyyyxxxxxxwwwwwwwvvvvvvvuuuuuuuuttttttttsssssssssrrrrrrrrrrqqqqqqqqqqqqppppppppppppppppooooooooooooooooooooooooooooooooooooooooooooooooppppppppppppppppqqqqqqqqqqqqrrrrrrrrrrsssssssssttttttttuuuuuuuuvvvvvvvwwwwwwwxxxxxxyyyyyyyzzzzzzz++..+
(PID.TID 0000.0001) //     36 +..++zzzzzzzyyyyyyyxxxxxxxwwwwwwwvvvvvvvvuuuuuuutttttttttsssssssssrrrrrrrrrrrqqqqqqqqqqqqqppppppppppppppppppppooooooooooooooooooooooooooooooooppppppppppppppppppppqqqqqqqqqqqqqrrrrrrrrrrrssssssssstttttttttuuuuuuuvvvvvvvvwwwwwwwxxxxxxxyyyyyyyzzzzzzz++..+
(PID.TID 0000.0001) //     35 +..+++zzzzzzyyyyyyyxxxxxxxxwwwwwwwvvvvvvvvuuuuuuuutttttttttsssssssssrrrrrrrrrrrrqqqqqqqqqqqqqqppppppppppppppppppppppppppppppppppppppppppppppppppppppppppppppppqqqqqqqqqqqqqqrrrrrrrrrrrrssssssssstttttttttuuuuuuuuvvvvvvvvwwwwwwwxxxxxxxxyyyyyyyzzzzzz+++..+
(PID.TID 0000.0001) //     34 +..+++zzzzzzzyyyyyyyxxxxxxxwwwwwwwwvvvvvvvvuuuuuuuuttttttttttssssssssssrrrrrrrrrrrrqqqqqqqqqqqqqqqqqppppppppppppppppppppppppppppppppppppppppppppppppppppqqqqqqqqqqqqqqqqqrrrrrrrrrrrrssssssssssttttttttttuuuuuuuuvvvvvvvvwwwwwwwwxxxxxxxyyyyyyyzzzzzzz+++..+
(PID.TID 0000.0001) //     33 +..+++zzzzzzzyyyyyyyxxxxxxxxwwwwwwwwvvvvvvvvuuuuuuuuuttttttttttsssssssssssrrrrrrrrrrrrrqqqqqqqqqqqqqqqqqqqqppppppppppppppppppppppppppppppppppppppqqqqqqqqqqqqqqqqqqqqrrrrrrrrrrrrrsssssssssssttttttttttuuuuuuuuuvvvvvvvvwwwwwwwwxxxxxxxxyyyyyyyzzzzzzz+++..+
(PID.TID 0000.0001) //     32 +..+++zzzzzzzyyyyyyyyxxxxxxxxwwwwwwwwvvvvvvvvvuuuuuuuuuttttttttttssssssssssssrrrrrrrrrrrrrrrqqqqqqqqqqqqqqqqqqqqqqqqqqqqqqqqqqqqqqqqqqqqqqqqqqqqqqqqqqqqqqqqqqqqrrrrrrrrrrrrrrrssssssssssssttttttttttuuuuuuuuuvvvvvvvvvwwwwwwwwxxxxxxxxyyyyyyyyzzzzzzz+++..+
(PID.TID 0000.0001) //     31 +..+++zzzzzzzzyyyyyyyyxxxxxxxxwwwwwwwwvvvvvvvvvuuuuuuuuuutttttttttttssssssssssssrrrrrrrrrrrrrrrrrqqqqqqqqqqqqqqqqqqqqqqqqqqqqqqqqqqqqqqqqqqqqqqqqqqqqqqqqqqrrrrrrrrrrrrrrrrrsssssssssssstttttttttttuuuuuuuuuuvvvvvvvvvwwwwwwwwxxxxxxxxyyyyyyyyzzzzzzzz+++..+
(PID.TID 0000.0001) //     30 +..+++zzzzzzzzyyyyyyyyxxxxxxxxxwwwwwwwwvvvvvvvvvvuuuuuuuuuutttttttttttssssssssssssssrrrrrrrrrrrrrrrrrrrrrqqqqqqqqqqqqqqqqqqqqqqqqqqqqqqqqqqqqqqqqqqrrrrrrrrrrrrrrrrrrrrrsssssssssssssstttttttttttuuuuuuuuuuvvvvvvvvvvwwwwwwwwxxxxxxxxxyyyyyyyyzzzzzzzz+++..+
(PID.TID 0000.0001) //     29 +..+++zzzzzzzzzyyyyyyyyxxxxxxxxxwwwwwwwwwvvvvvvvvvvuuuuuuuuuutttttttttttttsssssssssssssssrrrrrrrrrrrrrrrrrrrrrrrrrrrrrrrqqqqqqqqqqqqrrrrrrrrrrrrrrrrrrrrrrrrrrrrrrrssssssssssssssstttttttttttttuuuuuuuuuuvvvvvvvvvvwwwwwwwwwxxxxxxxxxyyyyyyyyzzzzzzzzz+++..+
(PID.TID 0000.0001) //     28 +..+++zzzzzzzzzyyyyyyyyyxxxxxxxxxwwwwwwwwwvvvvvvvvvvvuuuuuuuuuuutttttttttttttssssssssssssssssssrrrrrrrrrrrrrrrrrrrrrrrrrrrrrrrrrrrrrrrrrrrrrrrrrrrrrrrrrrrrrrsssssssssssssssssstttttttttttttuuuuuuuuuuuvvvvvvvvvvvwwwwwwwwwxxxxxxxxxyyyyyyyyyzzzzzzzzz+++..+
(PID.TID 0000.0001) //     27 +..++++zzzzzzzzyyyyyyyyyyxxxxxxxxxwwwwwwwwwwvvvvvvvvvvvuuuuuuuuuuuuttttttttttttttssssssssssssssssssssssrrrrrrrrrrrrrrrrrrrrrrrrrrrrrrrrrrrrrrrrrrrrrrssssssssssssssssssssssttttttttttttttuuuuuuuuuuuuvvvvvvvvvvvwwwwwwwwwwxxxxxxxxxyyyyyyyyyyzzzzzzzz++++..+
(PID.TID 0000.0001) //     26 +..++++zzzzzzzzzyyyyyyyyyxxxxxxxxxxwwwwwwwwwwwvvvvvvvvvvvuuuuuuuuuuuuuttttttttttttttttssssssssssssssssssssssssssssssrrrrrrrrrrrrrrrrrrrrssssssssssssssssssssssssssssssttttttttttttttttuuuuuuuuuuuuuvvvvvvvvvvvwwwwwwwwwwwxxxxxxxxxxyyyyyyyyyzzzzzzzzz++++..+
(PID.TID 0000.0001) //     25 +..++++zzzzzzzzzzyyyyyyyyyxxxxxxxxxxxwwwwwwwwwwwvvvvvvvvvvvvuuuuuuuuuuuuuuttttttttttttttttttssssssssssssssssssssssssssssssssssssssssssssssssssssssssssssssssssssttttttttttttttttttuuuuuuuuuuuuuuvvvvvvvvvvvvwwwwwwwwwwwxxxxxxxxxxxyyyyyyyyyzzzzzzzzzz++++..+
(PID.TID 0000.0001) //     24 +..++++zzzzzzzzzzyyyyyyyyyyxxxxxxxxxxxwwwwwwwwwwwwvvvvvvvvvvvvvuuuuuuuuuuuuuuuttttttttttttttttttttttssssssssssssssssssssssssssssssssssssssssssssssssssssttttttttttttttttttttttuuuuuuuuuuuuuuuvvvvvvvvvvvvvwwwwwwwwwwwwxxxxxxxxxxxyyyyyyyyyyzzzzzzzzzz++++..+
(PID.TID 0000.0001) //     23 +..++++zzzzzzzzzzzyyyyyyyyyyyxxxxxxxxxxxwwwwwwwwwwwwvvvvvvvvvvvvvvuuuuuuuuuuuuuuuuutttttttttttttttttttttttttttttttsssssssssssssssssssssssstttttttttttttttttttttttttttttttuuuuuuuuuuuuuuuuuvvvvvvvvvvvvvvwwwwwwwwwwwwxxxxxxxxxxxyyyyyyyyyyyzzzzzzzzzzz++++..+
(PID.TID 0000.0001) //     22 +..+++++zzzzzzzzzzzyyyyyyyyyyyxxxxxxxxxxxxwwwwwwwwwwwwwvvvvvvvvvvvvvvvuuuuuuuuuuuuuuuuuuuuttttttttttttttttttttttttttttttttttttttttttttttttttttttttttttttttttttttttuuuuuuuuuuuuuuuuuuuuvvvvvvvvvvvvvvvwwwwwwwwwwwwwxxxxxxxxxxxxyyyyyyyyyyyzzzzzzzzzzz+++++..+
(PID.TID 0000.0001) //     21 +..+++++zzzzzzzzzzzyyyyyyyyyyyyxxxxxxxxxxxxxwwwwwwwwwwwwwwvvvvvvvvvvvvvvvvuuuuuuuuuuuuuuuuuuuuuuuuttttttttttttttttttttttttttttttttttttttttttttttttttttttttuuuuuuuuuuuuuuuuuuuuuuuuvvvvvvvvvvvvvvvvwwwwwwwwwwwwwwxxxxxxxxxxxxxyyyyyyyyyyyyzzzzzzzzzzz+++++..+
(PID.TID 0000.0001) //     20 +..+++++zzzzzzzzzzzzyyyyyyyyyyyyyxxxxxxxxxxxxxwwwwwwwwwwwwwwwvvvvvvvvvvvvvvvvvvvuuuuuuuuuuuuuuuuuuuuuuuuuuuuuuuuuttttttttttttttttttttttttttuuuuuuuuuuuuuuuuuuuuuuuuuuuuuuuuuvvvvvvvvvvvvvvvvvvvwwwwwwwwwwwwwwwxxxxxxxxxxxxxyyyyyyyyyyyyyzzzzzzzzzzzz+++++..+
(PID.TID 0000.0001) //     19 +..+++++zzzzzzzzzzzzzyyyyyyyyyyyyyxxxxxxxxxxxxxxxwwwwwwwwwwwwwwwwvvvvvvvvvvvvvvvvvvvvvvuuuuuuuuuuuuuuuuuuuuuuuuuuuuuuuuuuuuuuuuuuuuuuuuuuuuuuuuuuuuuuuuuuuuuuuuuuuuuuvvvvvvvvvvvvvvvvvvvvvvwwwwwwwwwwwwwwwwxxxxxxxxxxxxxxxyyyyyyyyyyyyyzzzzzzzzzzzzz+++++..+
(PID.TID 0000.0001) //     18 +..++++++zzzzzzzzzzzzzyyyyyyyyyyyyyyxxxxxxxxxxxxxxxxwwwwwwwwwwwwwwwwwwvvvvvvvvvvvvvvvvvvvvvvvvvvuuuuuuuuuuuuuuuuuuuuuuuuuuuuuuuuuuuuuuuuuuuuuuuuuuuuuuuuuuuuvvvvvvvvvvvvvvvvvvvvvvvvvvwwwwwwwwwwwwwwwwwwxxxxxxxxxxxxxxxxyyyyyyyyyyyyyyzzzzzzzzzzzzz++++++..+
(PID.TID 0000.0001) //     17 +..++++++zzzzzzzzzzzzzzzyyyyyyyyyyyyyyyxxxxxxxxxxxxxxxxwwwwwwwwwwwwwwwwwwwwwvvvvvvvvvvvvvvvvvvvvvvvvvvvvvvvvvvvuuuuuuuuuuuuuuuuuuuuuuuuuuuuuuvvvvvvvvvvvvvvvvvvvvvvvvvvvvvvvvvvvwwwwwwwwwwwwwwwwwwwwwxxxxxxxxxxxxxxxxyyyyyyyyyyyyyyyzzzzzzzzzzzzzzz++++++..+
(PID.TID 0000.0001) //     16 +..+++++++zzzzzzzzzzzzzzzyyyyyyyyyyyyyyyyxxxxxxxxxxxxxxxxxxxwwwwwwwwwwwwwwwwwwwwwwwvvvvvvvvvvvvvvvvvvvvvvvvvvvvvvvvvvvvvvvvvvvvvvvvvvvvvvvvvvvvvvvvvvvvvvvvvvvvvvvvvvvvvvwwwwwwwwwwwwwwwwwwwwwwwxxxxxxxxxxxxxxxxxxxyyyyyyyyyyyyyyyyzzzzzzzzzzzzzzz+++++++..+
(PID.TID 0000.0001) //     15 +..+++++++zzzzzzzzzzzzzzzzzyyyyyyyyyyyyyyyyyxxxxxxxxxxxxxxxxxxxxwwwwwwwwwwwwwwwwwwwwwwwwwwwwwvvvvvvvvvvvvvvvvvvvvvvvvvvvvvvvvvvvvvvvvvvvvvvvvvvvvvvvvvvvvvvvvvvwwwwwwwwwwwwwwwwwwwwwwwwwwwwwxxxxxxxxxxxxxxxxxxxxyyyyyyyyyyyyyyyyyzzzzzzzzzzzzzzzzz+++++++..+
(PID.TID 0000.0001) //     14 +..++++++++zzzzzzzzzzzzzzzzzyyyyyyyyyyyyyyyyyyyyxxxxxxxxxxxxxxxxxxxxxxxwwwwwwwwwwwwwwwwwwwwwwwwwwwwwwwwwwwwwwwwvvvvvvvvvvvvvvvvvvvvvvvvvvvvvvwwwwwwwwwwwwwwwwwwwwwwwwwwwwwwwwwwwwwwwwxxxxxxxxxxxxxxxxxxxxxxxyyyyyyyyyyyyyyyyyyyyzzzzzzzzzzzzzzzzz++++++++..+
(PID.TID 0000.0001) //     13 +..++++++++zzzzzzzzzzzzzzzzzzzzyyyyyyyyyyyyyyyyyyyyyxxxxxxxxxxxxxxxxxxxxxxxxxxwwwwwwwwwwwwwwwwwwwwwwwwwwwwwwwwwwwwwwwwwwwwwwwwwwwwwwwwwwwwwwwwwwwwwwwwwwwwwwwwwwwwwwwwwwwwwwwwxxxxxxxxxxxxxxxxxxxxxxxxxxyyyyyyyyyyyyyyyyyyyyyzzzzzzzzzzzzzzzzzzzz++++++++..+
(PID.TID 0000.0001) //     12 +..+++++++++zzzzzzzzzzzzzzzzzzzzzyyyyyyyyyyyyyyyyyyyyyyyyxxxxxxxxxxxxxxxxxxxxxxxxxxxxxxxxxwwwwwwwwwwwwwwwwwwwwwwwwwwwwwwwwwwwwwwwwwwwwwwwwwwwwwwwwwwwwwwwwwwwwwwwwxxxxxxxxxxxxxxxxxxxxxxxxxxxxxxxxxyyyyyyyyyyyyyyyyyyyyyyyyzzzzzzzzzzzzzzzzzzzzz+++++++++..+
(PID.TID 0000.0001) //     11 +..++++++++++zzzzzzzzzzzzzzzzzzzzzzzyyyyyyyyyyyyyyyyyyyyyyyyyyyxxxxxxxxxxxxxxxxxxxxxxxxxxxxxxxxxxxxxxxxxxxxxxxwwwwwwwwwwwwwwwwwwwwwwwwwwwwwwwwxxxxxxxxxxxxxxxxxxxxxxxxxxxxxxxxxxxxxxxxxxxxxxxyyyyyyyyyyyyyyyyyyyyyyyyyyyzzzzzzzzzzzzzzzzzzzzzzz++++++++++..+
(PID.TID 0000.0001) //     10 +..+++++++++++zzzzzzzzzzzzzzzzzzzzzzzzzzyyyyyyyyyyyyyyyyyyyyyyyyyyyyyyyyxxxxxxxxxxxxxxxxxxxxxxxxxxxxxxxxxxxxxxxxxxxxxxxxxxxxxxxxxxxxxxxxxxxxxxxxxxxxxxxxxxxxxxxxxxxxxxxxxxxxxxxxxxxxyyyyyyyyyyyyyyyyyyyyyyyyyyyyyyyyzzzzzzzzzzzzzzzzzzzzzzzzzz+++++++++++..+
(PID.TID 0000.0001) //      9 +..+++++++++++++zzzzzzzzzzzzzzzzzzzzzzzzzzzzzyyyyyyyyyyyyyyyyyyyyyyyyyyyyyyyyyyyyyyyxxxxxxxxxxxxxxxxxxxxxxxxxxxxxxxxxxxxxxxxxxxxxxxxxxxxxxxxxxxxxxxxxxxxxxxxxxxxxxxxxxxxyyyyyyyyyyyyyyyyyyyyyyyyyyyyyyyyyyyyyyyzzzzzzzzzzzzzzzzzzzzzzzzzzzzz+++++++++++++..+
(PID.TID 0000.0001) //      8 +..+++++++++++++++zzzzzzzzzzzzzzzzzzzzzzzzzzzzzzzzzzyyyyyyyyyyyyyyyyyyyyyyyyyyyyyyyyyyyyyyyyyyyyyyyyyyyyyyyyyyxxxxxxxxxxxxxxxxxxxxxxxxxxxxxxxxyyyyyyyyyyyyyyyyyyyyyyyyyyyyyyyyyyyyyyyyyyyyyyyyyyyyyyyyyyzzzzzzzzzzzzzzzzzzzzzzzzzzzzzzzzzz+++++++++++++++..+
(PID.TID 0000.0001) //      7 +..+++++++++++++++++zzzzzzzzzzzzzzzzzzzzzzzzzzzzzzzzzzzzzzzzzyyyyyyyyyyyyyyyyyyyyyyyyyyyyyyyyyyyyyyyyyyyyyyyyyyyyyyyyyyyyyyyyyyyyyyyyyyyyyyyyyyyyyyyyyyyyyyyyyyyyyyyyyyyyyyyyyyyyyyyyyyyyyyyyyyzzzzzzzzzzzzzzzzzzzzzzzzzzzzzzzzzzzzzzzzz+++++++++++++++++..+
(PID.TID 0000.0001) //      6 +..+++++++++++++++++++++zzzzzzzzzzzzzzzzzzzzzzzzzzzzzzzzzzzzzzzzzzzzzzzzzzzzyyyyyyyyyyyyyyyyyyyyyyyyyyyyyyyyyyyyyyyyyyyyyyyyyyyyyyyyyyyyyyyyyyyyyyyyyyyyyyyyyyyyyyyyyyyyyyyyyyyyzzzzzzzzzzzzzzzzzzzzzzzzzzzzzzzzzzzzzzzzzzzzzzzzzzzz+++++++++++++++++++++..+
(PID.TID 0000.0001) //      5 +..++++++++++++++++++++++++++zzzzzzzzzzzzzzzzzzzzzzzzzzzzzzzzzzzzzzzzzzzzzzzzzzzzzzzzzzzzzzzzzzzzzzzzzzzzzzzzzzyyyyyyyyyyyyyyyyyyyyyyyyyyyyyyzzzzzzzzzzzzzzzzzzzzzzzzzzzzzzzzzzzzzzzzzzzzzzzzzzzzzzzzzzzzzzzzzzzzzzzzzzzzzzzzzz++++++++++++++++++++++++++..+
(PID.TID 0000.0001) //      4 +..++++++++++++++++++++++++++++++++++zzzzzzzzzzzzzzzzzzzzzzzzzzzzzzzzzzzzzzzzzzzzzzzzzzzzzzzzzzzzzzzzzzzzzzzzzzzzzzzzzzzzzzzzzzzzzzzzzzzzzzzzzzzzzzzzzzzzzzzzzzzzzzzzzzzzzzzzzzzzzzzzzzzzzzzzzzzzzzzzzzzzzzzzzzzzzzzzzz++++++++++++++++++++++++++++++++++..+
(PID.TID 0000.0001) //      3 +..+++++++++++++++++++++++++++++++++++++++++++++++++zzzzzzzzzzzzzzzzzzzzzzzzzzzzzzzzzzzzzzzzzzzzzzzzzzzzzzzzzzzzzzzzzzzzzzzzzzzzzzzzzzzzzzzzzzzzzzzzzzzzzzzzzzzzzzzzzzzzzzzzzzzzzzzzzzzzzzzzzzzzzzzzzzzz+++++++++++++++++++++++++++++++++++++++++++++++++..+
(PID.TID 0000.0001) //      2 +..++++++++++++++++++++++++++++++++++++++++++++++++++++++++++++++++++++++++++++++++++++++++++++++++++++++++++++++++++zzzzzzzzzzzzzzzzzz++++++++++++++++++++++++++++++++++++++++++++++++++++++++++++++++++++++++++++++++++++++++++++++++++++++++++++++++++..+
(PID.TID 0000.0001) //      1 ............................................................................................................................................................................................................................................................
(PID.TID 0000.0001) //      0 ............................................................................................................................................................................................................................................................
(PID.TID 0000.0001) //     -1 +..++++++++++++++++++++++++++++++++++++++++++++++++++++++++++++++++++++++++++++++++++++++++++++++++++++++++++++++++++zzzzzzzzzzzzzzzzzz++++++++++++++++++++++++++++++++++++++++++++++++++++++++++++++++++++++++++++++++++++++++++++++++++++++++++++++++++..+
(PID.TID 0000.0001) // =======================================================
(PID.TID 0000.0001) // END OF FIELD                                          =
(PID.TID 0000.0001) // =======================================================
(PID.TID 0000.0001) 
(PID.TID 0000.0001) // =======================================================
(PID.TID 0000.0001) // Field hFacW at iteration          0
(PID.TID 0000.0001) // CMIN =          9.000040039062500E-01
(PID.TID 0000.0001) // CMAX =          9.999398437500000E-01
(PID.TID 0000.0001) // CINT =          3.701327401620370E-03
(PID.TID 0000.0001) // SYMBOLS (CMIN->CMAX): -abcdefghijklmnopqrstuvwxyz+
(PID.TID 0000.0001) //                  0.0: .
(PID.TID 0000.0001) // RANGE I (Lo:Hi:Step):(    -1:   250:     1)
(PID.TID 0000.0001) // RANGE J (Lo:Hi:Step):(   250:    -1:    -1)
(PID.TID 0000.0001) // RANGE K (Lo:Hi:Step):(   1:   1:   1)
(PID.TID 0000.0001) // =======================================================
(PID.TID 0000.0001) K =   1
(PID.TID 0000.0001) //                I=8       I=18      I=28      I=38      I=48      I=58      I=68      I=78      I=88      I=98      I=108     I=118     I=128     I=138     I=148     I=158     I=168     I=178     I=188     I=198     I=208     I=218     I=228     I=238     I=248
(PID.TID 0000.0001) // |--J--|101234567|901234567|901234567|901234567|901234567|901234567|901234567|901234567|901234567|901234567|901234567|901234567|901234567|901234567|901234567|901234567|901234567|901234567|901234567|901234567|901234567|901234567|901234567|901234567|901234567|90
(PID.TID 0000.0001) //    250 +...+++++++++++++++++++++++++++++++++++++++++++++++++++++++++++++++++++++++++++++++++++++++++++++++++++++++++++++++++++++++++++++++++++++++++++++++++++++++++++++++++++++++++++++++++++++++++++++++++++++++++++++++++++++++++++++++++++++++++++++++++++++...
(PID.TID 0000.0001) //    249 ............................................................................................................................................................................................................................................................
(PID.TID 0000.0001) //    248 ............................................................................................................................................................................................................................................................
(PID.TID 0000.0001) //    247 +...+++++++++++++++++++++++++++++++++++++++++++++++++++++++++++++++++++++++++++++++++++++++++++++++++++++++++++++++++++++++++++++++++++++++++++++++++++++++++++++++++++++++++++++++++++++++++++++++++++++++++++++++++++++++++++++++++++++++++++++++++++++...
(PID.TID 0000.0001) //    246 +...+++++++++++++++++++++++++++++++++++++++++++++++++zzzzzzzzzzzzzzzzzzzzzzzzzzzzzzzzzzzzzzzzzzzzzzzzzzzzzzzzzzzzzzzzzzzzzzzzzzzzzzzzzzzzzzzzzzzzzzzzzzzzzzzzzzzzzzzzzzzzzzzzzzzzzzzzzzzzzzzzzzzzzzzzzzz+++++++++++++++++++++++++++++++++++++++++++++++++...
(PID.TID 0000.0001) //    245 +...+++++++++++++++++++++++++++++++++zzzzzzzzzzzzzzzzzzzzzzzzzzzzzzzzzzzzzzzzzzzzzzzzzzzzzzzzzzzzzzzzzzzzzzzzzzzzzzzzzzzzzzzzzzzzzzzzzzzzzzzzzzzzzzzzzzzzzzzzzzzzzzzzzzzzzzzzzzzzzzzzzzzzzzzzzzzzzzzzzzzzzzzzzzzzzzzzzzz+++++++++++++++++++++++++++++++++...
(PID.TID 0000.0001) //    244 +...+++++++++++++++++++++++++zzzzzzzzzzzzzzzzzzzzzzzzzzzzzzzzzzzzzzzzzzzzzzzzzzzzzzzzzzzzzzzzzzzzzzzzzzzzzzzzzzzyyyyyyyyyyyyyyyyyyyyyyyyyyyyyzzzzzzzzzzzzzzzzzzzzzzzzzzzzzzzzzzzzzzzzzzzzzzzzzzzzzzzzzzzzzzzzzzzzzzzzzzzzzzzzzzz+++++++++++++++++++++++++...
(PID.TID 0000.0001) //    243 +...++++++++++++++++++++zzzzzzzzzzzzzzzzzzzzzzzzzzzzzzzzzzzzzzzzzzzzzzzzzzzzyyyyyyyyyyyyyyyyyyyyyyyyyyyyyyyyyyyyyyyyyyyyyyyyyyyyyyyyyyyyyyyyyyyyyyyyyyyyyyyyyyyyyyyyyyyyyyyyyyyyyzzzzzzzzzzzzzzzzzzzzzzzzzzzzzzzzzzzzzzzzzzzzzzzzzzzz++++++++++++++++++++...
(PID.TID 0000.0001) //    242 +...+++++++++++++++++zzzzzzzzzzzzzzzzzzzzzzzzzzzzzzzzzzzzzzzzyyyyyyyyyyyyyyyyyyyyyyyyyyyyyyyyyyyyyyyyyyyyyyyyyyyyyyyyyyyyyyyyyyyyyyyyyyyyyyyyyyyyyyyyyyyyyyyyyyyyyyyyyyyyyyyyyyyyyyyyyyyyyyyyyyyzzzzzzzzzzzzzzzzzzzzzzzzzzzzzzzzzzzzzzzz+++++++++++++++++...
(PID.TID 0000.0001) //    241 +...++++++++++++++zzzzzzzzzzzzzzzzzzzzzzzzzzzzzzzzzzyyyyyyyyyyyyyyyyyyyyyyyyyyyyyyyyyyyyyyyyyyyyyyyyyyyyyyyyyyyxxxxxxxxxxxxxxxxxxxxxxxxxxxxxxxyyyyyyyyyyyyyyyyyyyyyyyyyyyyyyyyyyyyyyyyyyyyyyyyyyyyyyyyyyyzzzzzzzzzzzzzzzzzzzzzzzzzzzzzzzzzz++++++++++++++...
(PID.TID 0000.0001) //    240 +...++++++++++++zzzzzzzzzzzzzzzzzzzzzzzzzzzzzyyyyyyyyyyyyyyyyyyyyyyyyyyyyyyyyyyyyyyyyxxxxxxxxxxxxxxxxxxxxxxxxxxxxxxxxxxxxxxxxxxxxxxxxxxxxxxxxxxxxxxxxxxxxxxxxxxxxxxxxxxxyyyyyyyyyyyyyyyyyyyyyyyyyyyyyyyyyyyyyyyyzzzzzzzzzzzzzzzzzzzzzzzzzzzzz++++++++++++...
(PID.TID 0000.0001) //    239 +...+++++++++++zzzzzzzzzzzzzzzzzzzzzzzzzyyyyyyyyyyyyyyyyyyyyyyyyyyyyyyyyxxxxxxxxxxxxxxxxxxxxxxxxxxxxxxxxxxxxxxxxxxxxxxxxxxxxxxxxxxxxxxxxxxxxxxxxxxxxxxxxxxxxxxxxxxxxxxxxxxxxxxxxxxxxxyyyyyyyyyyyyyyyyyyyyyyyyyyyyyyyyzzzzzzzzzzzzzzzzzzzzzzzzz+++++++++++...
(PID.TID 0000.0001) //    238 +...+++++++++zzzzzzzzzzzzzzzzzzzzzzzyyyyyyyyyyyyyyyyyyyyyyyyyyyxxxxxxxxxxxxxxxxxxxxxxxxxxxxxxxxxxxxxxxxxxxxxxxxwwwwwwwwwwwwwwwwwwwwwwwwwwwwwwwxxxxxxxxxxxxxxxxxxxxxxxxxxxxxxxxxxxxxxxxxxxxxxxxyyyyyyyyyyyyyyyyyyyyyyyyyyyzzzzzzzzzzzzzzzzzzzzzzz+++++++++...
(PID.TID 0000.0001) //    237 +...++++++++zzzzzzzzzzzzzzzzzzzzzyyyyyyyyyyyyyyyyyyyyyyyyxxxxxxxxxxxxxxxxxxxxxxxxxxxxxxxxxwwwwwwwwwwwwwwwwwwwwwwwwwwwwwwwwwwwwwwwwwwwwwwwwwwwwwwwwwwwwwwwwwwwwwwwwwxxxxxxxxxxxxxxxxxxxxxxxxxxxxxxxxxyyyyyyyyyyyyyyyyyyyyyyyyzzzzzzzzzzzzzzzzzzzzz++++++++...
(PID.TID 0000.0001) //    236 +...++++++++zzzzzzzzzzzzzzzzzzzyyyyyyyyyyyyyyyyyyyyyxxxxxxxxxxxxxxxxxxxxxxxxxxxwwwwwwwwwwwwwwwwwwwwwwwwwwwwwwwwwwwwwwwwwwwwwwwwwwwwwwwwwwwwwwwwwwwwwwwwwwwwwwwwwwwwwwwwwwwwwwwxxxxxxxxxxxxxxxxxxxxxxxxxxxyyyyyyyyyyyyyyyyyyyyyzzzzzzzzzzzzzzzzzzz++++++++...
(PID.TID 0000.0001) //    235 +...+++++++zzzzzzzzzzzzzzzzzzyyyyyyyyyyyyyyyyyyyxxxxxxxxxxxxxxxxxxxxxxxwwwwwwwwwwwwwwwwwwwwwwwwwwwwwwwwwwwwwwwwvvvvvvvvvvvvvvvvvvvvvvvvvvvvvvvwwwwwwwwwwwwwwwwwwwwwwwwwwwwwwwwwwwwwwwwxxxxxxxxxxxxxxxxxxxxxxxyyyyyyyyyyyyyyyyyyyzzzzzzzzzzzzzzzzzz+++++++...
(PID.TID 0000.0001) //    234 +...++++++zzzzzzzzzzzzzzzzzyyyyyyyyyyyyyyyyyxxxxxxxxxxxxxxxxxxxxxwwwwwwwwwwwwwwwwwwwwwwwwwwwwvvvvvvvvvvvvvvvvvvvvvvvvvvvvvvvvvvvvvvvvvvvvvvvvvvvvvvvvvvvvvvvvvvvwwwwwwwwwwwwwwwwwwwwwwwwwwwwxxxxxxxxxxxxxxxxxxxxxyyyyyyyyyyyyyyyyyzzzzzzzzzzzzzzzzz++++++...
(PID.TID 0000.0001) //    233 +...++++++zzzzzzzzzzzzzzzyyyyyyyyyyyyyyyyxxxxxxxxxxxxxxxxxxxwwwwwwwwwwwwwwwwwwwwwwwvvvvvvvvvvvvvvvvvvvvvvvvvvvvvvvvvvvvvvvvvvvvvvvvvvvvvvvvvvvvvvvvvvvvvvvvvvvvvvvvvvvvvvvwwwwwwwwwwwwwwwwwwwwwwwxxxxxxxxxxxxxxxxxxxyyyyyyyyyyyyyyyyzzzzzzzzzzzzzzz++++++...
(PID.TID 0000.0001) //    232 +...+++++zzzzzzzzzzzzzzzyyyyyyyyyyyyyyyxxxxxxxxxxxxxxxxxwwwwwwwwwwwwwwwwwwwwvvvvvvvvvvvvvvvvvvvvvvvvvvvvvvvvvvvvuuuuuuuuuuuuuuuuuuuuuuuuuuuuuvvvvvvvvvvvvvvvvvvvvvvvvvvvvvvvvvvvvwwwwwwwwwwwwwwwwwwwwxxxxxxxxxxxxxxxxxyyyyyyyyyyyyyyyzzzzzzzzzzzzzzz+++++...
(PID.TID 0000.0001) //    231 +...+++++zzzzzzzzzzzzzyyyyyyyyyyyyyyyxxxxxxxxxxxxxxxwwwwwwwwwwwwwwwwwwvvvvvvvvvvvvvvvvvvvvvvvvvvuuuuuuuuuuuuuuuuuuuuuuuuuuuuuuuuuuuuuuuuuuuuuuuuuuuuuuuuuuuuuvvvvvvvvvvvvvvvvvvvvvvvvvvwwwwwwwwwwwwwwwwwwxxxxxxxxxxxxxxxyyyyyyyyyyyyyyyzzzzzzzzzzzzz+++++...
(PID.TID 0000.0001) //    230 +...+++++zzzzzzzzzzzzyyyyyyyyyyyyyyxxxxxxxxxxxxxxwwwwwwwwwwwwwwwwvvvvvvvvvvvvvvvvvvvvvvuuuuuuuuuuuuuuuuuuuuuuuuuuuuuuuuuuuuuuuuuuuuuuuuuuuuuuuuuuuuuuuuuuuuuuuuuuuuuuuvvvvvvvvvvvvvvvvvvvvvvwwwwwwwwwwwwwwwwxxxxxxxxxxxxxxyyyyyyyyyyyyyyzzzzzzzzzzzz+++++...
(PID.TID 0000.0001) //    229 +...++++zzzzzzzzzzzzyyyyyyyyyyyyyxxxxxxxxxxxxxwwwwwwwwwwwwwwwvvvvvvvvvvvvvvvvvvvuuuuuuuuuuuuuuuuuuuuuuuuuuuuuuuuutttttttttttttttttttttttttttuuuuuuuuuuuuuuuuuuuuuuuuuuuuuuuuuvvvvvvvvvvvvvvvvvvvwwwwwwwwwwwwwwwxxxxxxxxxxxxxyyyyyyyyyyyyyzzzzzzzzzzzz++++...
(PID.TID 0000.0001) //    228 +...++++zzzzzzzzzzzyyyyyyyyyyyyxxxxxxxxxxxxxwwwwwwwwwwwwwwvvvvvvvvvvvvvvvvvuuuuuuuuuuuuuuuuuuuuuuutttttttttttttttttttttttttttttttttttttttttttttttttttttttttuuuuuuuuuuuuuuuuuuuuuuuvvvvvvvvvvvvvvvvvwwwwwwwwwwwwwwxxxxxxxxxxxxxyyyyyyyyyyyyzzzzzzzzzzz++++...
(PID.TID 0000.0001) //    227 +...++++zzzzzzzzzzzyyyyyyyyyyyxxxxxxxxxxxxwwwwwwwwwwwwwvvvvvvvvvvvvvvvuuuuuuuuuuuuuuuuuuuutttttttttttttttttttttttttttttttttttttttttttttttttttttttttttttttttttttttttuuuuuuuuuuuuuuuuuuuuvvvvvvvvvvvvvvvwwwwwwwwwwwwwxxxxxxxxxxxxyyyyyyyyyyyzzzzzzzzzzz++++...
(PID.TID 0000.0001) //    226 +...+++zzzzzzzzzzzyyyyyyyyyyyxxxxxxxxxxxwwwwwwwwwwwwvvvvvvvvvvvvvvuuuuuuuuuuuuuuuuutttttttttttttttttttttttttttttttssssssssssssssssssssssssstttttttttttttttttttttttttttttttuuuuuuuuuuuuuuuuuvvvvvvvvvvvvvvwwwwwwwwwwwwxxxxxxxxxxxyyyyyyyyyyyzzzzzzzzzzz+++...
(PID.TID 0000.0001) //    225 +...+++zzzzzzzzzzyyyyyyyyyyyxxxxxxxxxxwwwwwwwwwwwwvvvvvvvvvvvvvuuuuuuuuuuuuuuutttttttttttttttttttttttssssssssssssssssssssssssssssssssssssssssssssssssssstttttttttttttttttttttttuuuuuuuuuuuuuuuvvvvvvvvvvvvvwwwwwwwwwwwwxxxxxxxxxxyyyyyyyyyyyzzzzzzzzzz+++...
(PID.TID 0000.0001) //    224 +...+++zzzzzzzzzzyyyyyyyyyxxxxxxxxxxxwwwwwwwwwwwvvvvvvvvvvvvuuuuuuuuuuuuuuttttttttttttttttttsssssssssssssssssssssssssssssssssssssssssssssssssssssssssssssssssssssttttttttttttttttttuuuuuuuuuuuuuuvvvvvvvvvvvvwwwwwwwwwwwxxxxxxxxxxxyyyyyyyyyzzzzzzzzzz+++...
(PID.TID 0000.0001) //    223 +...+++zzzzzzzzzyyyyyyyyyyxxxxxxxxxwwwwwwwwwwwvvvvvvvvvvvuuuuuuuuuuuuuttttttttttttttttsssssssssssssssssssssssssssssssrrrrrrrrrrrrrrrrrrrsssssssssssssssssssssssssssssssttttttttttttttttuuuuuuuuuuuuuvvvvvvvvvvvwwwwwwwwwwwxxxxxxxxxyyyyyyyyyyzzzzzzzzz+++...
(PID.TID 0000.0001) //    222 +...+++zzzzzzzzzyyyyyyyyyxxxxxxxxxwwwwwwwwwwvvvvvvvvvvvuuuuuuuuuuuuttttttttttttttssssssssssssssssssssssrrrrrrrrrrrrrrrrrrrrrrrrrrrrrrrrrrrrrrrrrrrrrrrssssssssssssssssssssssttttttttttttttuuuuuuuuuuuuvvvvvvvvvvvwwwwwwwwwwxxxxxxxxxyyyyyyyyyzzzzzzzzz+++...
(PID.TID 0000.0001) //    221 +...++zzzzzzzzzyyyyyyyyyxxxxxxxxxwwwwwwwwwvvvvvvvvvvvuuuuuuuuuuutttttttttttttssssssssssssssssssrrrrrrrrrrrrrrrrrrrrrrrrrrrrrrrrrrrrrrrrrrrrrrrrrrrrrrrrrrrrrrrsssssssssssssssssstttttttttttttuuuuuuuuuuuvvvvvvvvvvvwwwwwwwwwxxxxxxxxxyyyyyyyyyzzzzzzzzz++...
(PID.TID 0000.0001) //    220 +...++zzzzzzzzzyyyyyyyyxxxxxxxxxwwwwwwwwwvvvvvvvvvvuuuuuuuuuutttttttttttttsssssssssssssssrrrrrrrrrrrrrrrrrrrrrrrrrrrrrrrqqqqqqqqqqqqqrrrrrrrrrrrrrrrrrrrrrrrrrrrrrrrssssssssssssssstttttttttttttuuuuuuuuuuvvvvvvvvvvwwwwwwwwwxxxxxxxxxyyyyyyyyzzzzzzzzz++...
(PID.TID 0000.0001) //    219 +...++zzzzzzzzyyyyyyyyxxxxxxxxxwwwwwwwwwvvvvvvvvvuuuuuuuuuutttttttttttssssssssssssssrrrrrrrrrrrrrrrrrrrrrqqqqqqqqqqqqqqqqqqqqqqqqqqqqqqqqqqqqqqqqqqqrrrrrrrrrrrrrrrrrrrrrsssssssssssssstttttttttttuuuuuuuuuuvvvvvvvvvwwwwwwwwwxxxxxxxxxyyyyyyyyzzzzzzzz++...
(PID.TID 0000.0001) //    218 +...++zzzzzzzzyyyyyyyyxxxxxxxxwwwwwwwwvvvvvvvvvuuuuuuuuuutttttttttttssssssssssssrrrrrrrrrrrrrrrrrqqqqqqqqqqqqqqqqqqqqqqqqqqqqqqqqqqqqqqqqqqqqqqqqqqqqqqqqqqqrrrrrrrrrrrrrrrrrsssssssssssstttttttttttuuuuuuuuuuvvvvvvvvvwwwwwwwwxxxxxxxxyyyyyyyyzzzzzzzz++...
(PID.TID 0000.0001) //    217 +...++zzzzzzzyyyyyyyyxxxxxxxxwwwwwwwwvvvvvvvvvuuuuuuuuuttttttttttssssssssssssrrrrrrrrrrrrrrrqqqqqqqqqqqqqqqqqqqqqqqqqqqqqqqqqqqqqqqqqqqqqqqqqqqqqqqqqqqqqqqqqqqqqrrrrrrrrrrrrrrrssssssssssssttttttttttuuuuuuuuuvvvvvvvvvwwwwwwwwxxxxxxxxyyyyyyyyzzzzzzz++...
(PID.TID 0000.0001) //    216 +...++zzzzzzzyyyyyyyyxxxxxxxwwwwwwwwvvvvvvvvuuuuuuuuuttttttttttsssssssssssrrrrrrrrrrrrrqqqqqqqqqqqqqqqqqqqqqpppppppppppppppppppppppppppppppppppppqqqqqqqqqqqqqqqqqqqqqrrrrrrrrrrrrrsssssssssssttttttttttuuuuuuuuuvvvvvvvvwwwwwwwwxxxxxxxyyyyyyyyzzzzzzz++...
(PID.TID 0000.0001) //    215 +...++zzzzzzzyyyyyyyxxxxxxxwwwwwwwwvvvvvvvvuuuuuuuuttttttttttssssssssssrrrrrrrrrrrrqqqqqqqqqqqqqqqqqpppppppppppppppppppppppppppppppppppppppppppppppppppppqqqqqqqqqqqqqqqqqrrrrrrrrrrrrssssssssssttttttttttuuuuuuuuvvvvvvvvwwwwwwwwxxxxxxxyyyyyyyzzzzzzz++...
(PID.TID 0000.0001) //    214 +...++zzzzzzyyyyyyyyxxxxxxxwwwwwwwvvvvvvvvuuuuuuuutttttttttsssssssssrrrrrrrrrrrrqqqqqqqqqqqqqqpppppppppppppppppppppppppppppppppppppppppppppppppppppppppppppppppqqqqqqqqqqqqqqrrrrrrrrrrrrssssssssstttttttttuuuuuuuuvvvvvvvvwwwwwwwxxxxxxxyyyyyyyyzzzzzz++...
(PID.TID 0000.0001) //    213 +...+zzzzzzzyyyyyyyxxxxxxxwwwwwwwvvvvvvvvuuuuuuutttttttttsssssssssrrrrrrrrrrrqqqqqqqqqqqqqppppppppppppppppppppoooooooooooooooooooooooooooooooooppppppppppppppppppppqqqqqqqqqqqqqrrrrrrrrrrrssssssssstttttttttuuuuuuuvvvvvvvvwwwwwwwxxxxxxxyyyyyyyzzzzzzz+...
(PID.TID 0000.0001) //    212 +...+zzzzzzzyyyyyyyxxxxxxwwwwwwwvvvvvvvvuuuuuuuttttttttsssssssssrrrrrrrrrrqqqqqqqqqqqqppppppppppppppppoooooooooooooooooooooooooooooooooooooooooooooooooppppppppppppppppqqqqqqqqqqqqrrrrrrrrrrsssssssssttttttttuuuuuuuvvvvvvvvwwwwwwwxxxxxxyyyyyyyzzzzzzz+...
(PID.TID 0000.0001) //    211 +...+zzzzzzzyyyyyyxxxxxxxwwwwwwwvvvvvvvuuuuuuuttttttttssssssssrrrrrrrrrqqqqqqqqqqqpppppppppppppppooooooooooooooooooooooooooooooooooooooooooooooooooooooooooopppppppppppppppqqqqqqqqqqqrrrrrrrrrssssssssttttttttuuuuuuuvvvvvvvwwwwwwwxxxxxxxyyyyyyzzzzzzz+...
(PID.TID 0000.0001) //    210 +...+zzzzzzyyyyyyyxxxxxxwwwwwwwvvvvvvvuuuuuuutttttttssssssssrrrrrrrrrqqqqqqqqqqpppppppppppppoooooooooooooooooooooonnnnnnnnnnnnnnnnnnnnnnnnnoooooooooooooooooooooopppppppppppppqqqqqqqqqqrrrrrrrrrsssssssstttttttuuuuuuuvvvvvvvwwwwwwwxxxxxxyyyyyyyzzzzzz+...
(PID.TID 0000.0001) //    209 +...+zzzzzzyyyyyyxxxxxxxwwwwwwvvvvvvvuuuuuuutttttttssssssssrrrrrrrrqqqqqqqqqqpppppppppppooooooooooooooooonnnnnnnnnnnnnnnnnnnnnnnnnnnnnnnnnnnnnnnnnnnooooooooooooooooopppppppppppqqqqqqqqqqrrrrrrrrsssssssstttttttuuuuuuuvvvvvvvwwwwwwxxxxxxxyyyyyyzzzzzz+...
(PID.TID 0000.0001) //    208 +...+zzzzzzyyyyyyxxxxxxwwwwwwvvvvvvvuuuuuuutttttttsssssssrrrrrrrrqqqqqqqqqpppppppppppoooooooooooooonnnnnnnnnnnnnnnnnnnnnnnnnnnnnnnnnnnnnnnnnnnnnnnnnnnnnnnoooooooooooooopppppppppppqqqqqqqqqrrrrrrrrssssssstttttttuuuuuuuvvvvvvvwwwwwwxxxxxxyyyyyyzzzzzz+...
(PID.TID 0000.0001) //    207 +...+zzzzzzyyyyyyxxxxxxwwwwwwvvvvvvuuuuuuuttttttssssssssrrrrrrrqqqqqqqqqppppppppppooooooooooooonnnnnnnnnnnnnnnnnnnnnnnnnmmmmmmmmmmmmmnnnnnnnnnnnnnnnnnnnnnnnnnoooooooooooooppppppppppqqqqqqqqqrrrrrrrssssssssttttttuuuuuuuvvvvvvwwwwwwxxxxxxyyyyyyzzzzzz+...
(PID.TID 0000.0001) //    206 +...+zzzzzzyyyyyxxxxxxwwwwwwvvvvvvuuuuuuuttttttsssssssrrrrrrrrqqqqqqqqpppppppppoooooooooooonnnnnnnnnnnnnnnnnnmmmmmmmmmmmmmmmmmmmmmmmmmmmmmmmmmmmnnnnnnnnnnnnnnnnnnoooooooooooopppppppppqqqqqqqqrrrrrrrrsssssssttttttuuuuuuuvvvvvvwwwwwwxxxxxxyyyyyzzzzzz+...
(PID.TID 0000.0001) //    205 +...+zzzzzyyyyyyxxxxxxwwwwwwvvvvvvuuuuuuttttttsssssssrrrrrrrqqqqqqqqpppppppppooooooooooonnnnnnnnnnnnnnmmmmmmmmmmmmmmmmmmmmmmmmmmmmmmmmmmmmmmmmmmmmmmmmmnnnnnnnnnnnnnnooooooooooopppppppppqqqqqqqqrrrrrrrsssssssttttttuuuuuuvvvvvvwwwwwwxxxxxxyyyyyyzzzzz+...
(PID.TID 0000.0001) //    204 +...+zzzzzyyyyyyxxxxxwwwwwwvvvvvvuuuuuuttttttsssssssrrrrrrrqqqqqqqpppppppppoooooooooonnnnnnnnnnnnnmmmmmmmmmmmmmmmmmmmmmmmmmmmmmmmmmmmmmmmmmmmmmmmmmmmmmmmmmnnnnnnnnnnnnnoooooooooopppppppppqqqqqqqrrrrrrrsssssssttttttuuuuuuvvvvvvwwwwwwxxxxxyyyyyyzzzzz+...
(PID.TID 0000.0001) //    203 +...+zzzzzyyyyyyxxxxxwwwwwwvvvvvuuuuuuttttttsssssssrrrrrrqqqqqqqqppppppppooooooooonnnnnnnnnnnnmmmmmmmmmmmmmmmmmmmlllllllllllllllllllllllllllmmmmmmmmmmmmmmmmmmmnnnnnnnnnnnnoooooooooppppppppqqqqqqqqrrrrrrsssssssttttttuuuuuuvvvvvwwwwwwxxxxxyyyyyyzzzzz+...
(PID.TID 0000.0001) //    202 +...+zzzzzyyyyyxxxxxxwwwwwvvvvvvuuuuuttttttsssssssrrrrrrqqqqqqqppppppppooooooooonnnnnnnnnnmmmmmmmmmmmmmmmmlllllllllllllllllllllllllllllllllllllllllmmmmmmmmmmmmmmmmnnnnnnnnnnoooooooooppppppppqqqqqqqrrrrrrsssssssttttttuuuuuvvvvvvwwwwwxxxxxxyyyyyzzzzz+...
(PID.TID 0000.0001) //    201 +...+zzzzzyyyyyxxxxxwwwwwwvvvvvuuuuuuttttttssssssrrrrrrqqqqqqqpppppppooooooooonnnnnnnnnnmmmmmmmmmmmmmlllllllllllllllllllllllllllllllllllllllllllllllllllmmmmmmmmmmmmmnnnnnnnnnnooooooooopppppppqqqqqqqrrrrrrssssssttttttuuuuuuvvvvvwwwwwwxxxxxyyyyyzzzzz+...
(PID.TID 0000.0001) //    200 +...+zzzzzyyyyyxxxxxwwwwwvvvvvvuuuuuttttttssssssrrrrrrqqqqqqqpppppppoooooooonnnnnnnnnmmmmmmmmmmmmllllllllllllllllllllllkkkkkkkkkkkkkkkllllllllllllllllllllllmmmmmmmmmmmmnnnnnnnnnoooooooopppppppqqqqqqqrrrrrrssssssttttttuuuuuvvvvvvwwwwwxxxxxyyyyyzzzzz+...
(PID.TID 0000.0001) //    199 +...+zzzzzyyyyyxxxxxwwwwwvvvvvuuuuuttttttssssssrrrrrrqqqqqqpppppppoooooooonnnnnnnnnmmmmmmmmmmlllllllllllllllllkkkkkkkkkkkkkkkkkkkkkkkkkkkkkkkkklllllllllllllllllmmmmmmmmmmnnnnnnnnnoooooooopppppppqqqqqqrrrrrrssssssttttttuuuuuvvvvvwwwwwxxxxxyyyyyzzzzz+...
(PID.TID 0000.0001) //    198 +...+zzzzyyyyyxxxxxwwwwwvvvvvvuuuuutttttssssssrrrrrrqqqqqqpppppppooooooonnnnnnnnmmmmmmmmmmllllllllllllllkkkkkkkkkkkkkkkkkkkkkkkkkkkkkkkkkkkkkkkkkkkkkllllllllllllllmmmmmmmmmmnnnnnnnnooooooopppppppqqqqqqrrrrrrsssssstttttuuuuuvvvvvvwwwwwxxxxxyyyyyzzzz+...
(PID.TID 0000.0001) //    197 z...zzzzzyyyyyxxxxxwwwwwvvvvvuuuuuttttttsssssrrrrrrqqqqqqppppppoooooooonnnnnnnmmmmmmmmmmllllllllllllkkkkkkkkkkkkkkkkkkkkkkkkkkkkkkkkkkkkkkkkkkkkkkkkkkkkkllllllllllllmmmmmmmmmmnnnnnnnooooooooppppppqqqqqqrrrrrrsssssttttttuuuuuvvvvvwwwwwxxxxxyyyyyzzzzz...
(PID.TID 0000.0001) //    196 z...zzzzzyyyyyxxxxxwwwwwvvvvvuuuuutttttsssssrrrrrrqqqqqqppppppooooooonnnnnnnnmmmmmmmmlllllllllllkkkkkkkkkkkkkkkkkkkjjjjjjjjjjjjjjjjjjjjjjjkkkkkkkkkkkkkkkkkkklllllllllllmmmmmmmmnnnnnnnnoooooooppppppqqqqqqrrrrrrssssstttttuuuuuvvvvvwwwwwxxxxxyyyyyzzzzz...
(PID.TID 0000.0001) //    195 z...zzzzzyyyyyxxxxxwwwwvvvvvuuuuutttttssssssrrrrrqqqqqqppppppooooooonnnnnnnmmmmmmmmllllllllllkkkkkkkkkkkkkkkjjjjjjjjjjjjjjjjjjjjjjjjjjjjjjjjjjjjjkkkkkkkkkkkkkkkllllllllllmmmmmmmmnnnnnnnoooooooppppppqqqqqqrrrrrsssssstttttuuuuuvvvvvwwwwxxxxxyyyyyzzzzz...
(PID.TID 0000.0001) //    194 z...zzzzzyyyyyxxxxwwwwwvvvvvuuuuutttttsssssrrrrrqqqqqqppppppoooooonnnnnnnmmmmmmmmllllllllllkkkkkkkkkkkkkjjjjjjjjjjjjjjjjjjjjjjjjjjjjjjjjjjjjjjjjjjjjjkkkkkkkkkkkkkllllllllllmmmmmmmmnnnnnnnooooooppppppqqqqqqrrrrrssssstttttuuuuuvvvvvwwwwwxxxxyyyyyzzzzz...
(PID.TID 0000.0001) //    193 z...zzzzzyyyyxxxxxwwwwwvvvvuuuuutttttsssssrrrrrqqqqqqppppppoooooonnnnnnnmmmmmmmlllllllllkkkkkkkkkkkkjjjjjjjjjjjjjjjjjjjjjjjjjjjjjjjjjjjjjjjjjjjjjjjjjjjjjkkkkkkkkkkkklllllllllmmmmmmmnnnnnnnooooooppppppqqqqqqrrrrrssssstttttuuuuuvvvvwwwwwxxxxxyyyyzzzzz...
(PID.TID 0000.0001) //    192 z...zzzzzyyyyxxxxxwwwwvvvvvuuuuutttttsssssrrrrrqqqqqppppppoooooonnnnnnmmmmmmmmllllllllkkkkkkkkkkkjjjjjjjjjjjjjjjjjiiiiiiiiiiiiiiiiiiiiiiiiijjjjjjjjjjjjjjjjjkkkkkkkkkkkllllllllmmmmmmmmnnnnnnooooooppppppqqqqqrrrrrssssstttttuuuuuvvvvvwwwwxxxxxyyyyzzzzz...
(PID.TID 0000.0001) //    191 z...zzzzzyyyyxxxxxwwwwvvvvvuuuutttttsssssrrrrrqqqqqppppppoooooonnnnnnmmmmmmmllllllllkkkkkkkkkkjjjjjjjjjjjjjjiiiiiiiiiiiiiiiiiiiiiiiiiiiiiiiiiiiiijjjjjjjjjjjjjjkkkkkkkkkkllllllllmmmmmmmnnnnnnooooooppppppqqqqqrrrrrssssstttttuuuuvvvvvwwwwxxxxxyyyyzzzzz...
(PID.TID 0000.0001) //    190 z...zzzzzyyyyxxxxwwwwwvvvvuuuuutttttssssrrrrrqqqqqqpppppoooooonnnnnnmmmmmmmlllllllkkkkkkkkkjjjjjjjjjjjjjiiiiiiiiiiiiiiiiiiiiiiiiiiiiiiiiiiiiiiiiiiiiijjjjjjjjjjjjjkkkkkkkkklllllllmmmmmmmnnnnnnoooooopppppqqqqqqrrrrrsssstttttuuuuuvvvvwwwwwxxxxyyyyzzzzz...
(PID.TID 0000.0001) //    189 z...zzzzyyyyyxxxxwwwwvvvvvuuuutttttsssssrrrrrqqqqqpppppoooooonnnnnnmmmmmmllllllllkkkkkkkkjjjjjjjjjjjiiiiiiiiiiiiiiiiiiiiiiiiiiiiiiiiiiiiiiiiiiiiiiiiiiiiijjjjjjjjjjjkkkkkkkkllllllllmmmmmmnnnnnnoooooopppppqqqqqrrrrrssssstttttuuuuvvvvvwwwwxxxxyyyyyzzzz...
(PID.TID 0000.0001) //    188 z...zzzzyyyyyxxxxwwwwvvvvvuuuutttttssssrrrrrqqqqqpppppoooooonnnnnnmmmmmmlllllllkkkkkkkkjjjjjjjjjjiiiiiiiiiiiiiiiiihhhhhhhhhhhhhhhhhhhhhhhhhiiiiiiiiiiiiiiiiijjjjjjjjjjkkkkkkkklllllllmmmmmmnnnnnnoooooopppppqqqqqrrrrrsssstttttuuuuvvvvvwwwwxxxxyyyyyzzzz...
(PID.TID 0000.0001) //    187 z...zzzzyyyyxxxxxwwwwvvvvuuuuuttttsssssrrrrqqqqqpppppoooooonnnnnnmmmmmmlllllllkkkkkkkjjjjjjjjjjiiiiiiiiiiiiihhhhhhhhhhhhhhhhhhhhhhhhhhhhhhhhhhhhhiiiiiiiiiiiiijjjjjjjjjjkkkkkkklllllllmmmmmmnnnnnnoooooopppppqqqqqrrrrsssssttttuuuuuvvvvwwwwxxxxxyyyyzzzz...
(PID.TID 0000.0001) //    186 z...zzzzyyyyxxxxxwwwwvvvvuuuutttttssssrrrrrqqqqqpppppooooonnnnnnmmmmmmllllllkkkkkkkkjjjjjjjjiiiiiiiiiiiiihhhhhhhhhhhhhhhhhhhhhhhhhhhhhhhhhhhhhhhhhhhiiiiiiiiiiiiijjjjjjjjkkkkkkkkllllllmmmmmmnnnnnnooooopppppqqqqqrrrrrsssstttttuuuuvvvvwwwwxxxxxyyyyzzzz...
(PID.TID 0000.0001) //    185 z...zzzzyyyyxxxxwwwwvvvvvuuuuttttsssssrrrrqqqqqpppppooooonnnnnnmmmmmlllllllkkkkkkkjjjjjjjjiiiiiiiiiiihhhhhhhhhhhhhhhhhhhhhhhhhhhhhhhhhhhhhhhhhhhhhhhhhhhiiiiiiiiiiijjjjjjjjkkkkkkklllllllmmmmmnnnnnnooooopppppqqqqqrrrrsssssttttuuuuvvvvvwwwwxxxxyyyyzzzz...
(PID.TID 0000.0001) //    184 z...zzzzyyyyxxxxwwwwvvvvuuuuuttttssssrrrrrqqqqpppppooooonnnnnnmmmmmlllllllkkkkkkjjjjjjjjiiiiiiiiiiihhhhhhhhhhhhhhhhggggggggggggggggggggggghhhhhhhhhhhhhhhhiiiiiiiiiiijjjjjjjjkkkkkklllllllmmmmmnnnnnnooooopppppqqqqrrrrrssssttttuuuuuvvvvwwwwxxxxyyyyzzzz...
(PID.TID 0000.0001) //    183 z...zzzzyyyyxxxxwwwwvvvvuuuutttttssssrrrrqqqqqpppppooooonnnnnmmmmmllllllkkkkkkkjjjjjjjjiiiiiiiiihhhhhhhhhhhhhhggggggggggggggggggggggggggggggggghhhhhhhhhhhhhhiiiiiiiiijjjjjjjjkkkkkkkllllllmmmmmnnnnnooooopppppqqqqqrrrrsssstttttuuuuvvvvwwwwxxxxyyyyzzzz...
(PID.TID 0000.0001) //    182 z...zzzzyyyyxxxxwwwwvvvvuuuuttttssssrrrrrqqqqpppppooooonnnnnmmmmmllllllkkkkkkkjjjjjjjiiiiiiiiihhhhhhhhhhhhggggggggggggggggggggggggggggggggggggggggghhhhhhhhhhhhiiiiiiiiijjjjjjjkkkkkkkllllllmmmmmnnnnnooooopppppqqqqrrrrrssssttttuuuuvvvvwwwwxxxxyyyyzzzz...
(PID.TID 0000.0001) //    181 z...zzzzyyyyxxxxwwwwvvvvuuuuttttssssrrrrqqqqqppppooooonnnnnmmmmmmlllllkkkkkkkjjjjjjjiiiiiiiihhhhhhhhhhhggggggggggggggggggggggggggggggggggggggggggggggghhhhhhhhhhhiiiiiiiijjjjjjjkkkkkkklllllmmmmmmnnnnnoooooppppqqqqqrrrrssssttttuuuuvvvvwwwwxxxxyyyyzzzz...
(PID.TID 0000.0001) //    180 z...zzzzyyyyxxxxwwwvvvvuuuuttttsssssrrrrqqqqpppppooooonnnnmmmmmmlllllkkkkkkjjjjjjjiiiiiiiihhhhhhhhhhggggggggggggggggggfffffffffffffffffgggggggggggggggggghhhhhhhhhhiiiiiiiijjjjjjjkkkkkklllllmmmmmmnnnnooooopppppqqqqrrrrsssssttttuuuuvvvvwwwxxxxyyyyzzzz...
(PID.TID 0000.0001) //    179 z...zzzzyyyyxxxwwwwvvvvuuuuttttssssrrrrqqqqqppppooooonnnnnmmmmmlllllkkkkkkjjjjjjjiiiiiiihhhhhhhhhhggggggggggggggfffffffffffffffffffffffffffffgggggggggggggghhhhhhhhhhiiiiiiijjjjjjjkkkkkklllllmmmmmnnnnnoooooppppqqqqqrrrrssssttttuuuuvvvvwwwwxxxyyyyzzzz...
(PID.TID 0000.0001) //    178 z...zzzzyyyxxxxwwwwvvvvuuuuttttssssrrrrqqqqpppppoooonnnnnmmmmmlllllkkkkkkjjjjjjjiiiiiiihhhhhhhhhggggggggggggfffffffffffffffffffffffffffffffffffffgggggggggggghhhhhhhhhiiiiiiijjjjjjjkkkkkklllllmmmmmnnnnnoooopppppqqqqrrrrssssttttuuuuvvvvwwwwxxxxyyyzzzz...
(PID.TID 0000.0001) //    177 z...zzzzyyyxxxxwwwwvvvvuuuuttttssssrrrrqqqqppppooooonnnnmmmmmllllllkkkkkjjjjjjiiiiiiihhhhhhhhhgggggggggggfffffffffffffffffffffffffffffffffffffffffffggggggggggghhhhhhhhhiiiiiiijjjjjjkkkkkllllllmmmmmnnnnoooooppppqqqqrrrrssssttttuuuuvvvvwwwwxxxxyyyzzzz...
(PID.TID 0000.0001) //    176 z...zzzzyyyxxxxwwwwvvvvuuuttttssssrrrrqqqqpppppoooonnnnnmmmmmlllllkkkkkjjjjjjiiiiiiihhhhhhhhggggggggggfffffffffffffffffffffffffffffffffffffffffffffffffgggggggggghhhhhhhhiiiiiiijjjjjjkkkkklllllmmmmmnnnnnoooopppppqqqqrrrrssssttttuuuvvvvwwwwxxxxyyyzzzz...
(PID.TID 0000.0001) //    175 z...zzzzyyyxxxxwwwwvvvuuuuttttssssrrrrqqqqppppooooonnnnmmmmmlllllkkkkkjjjjjjiiiiiiihhhhhhhggggggggggffffffffffffffffeeeeeeeeeeeeeeeeeeeeeffffffffffffffffgggggggggghhhhhhhiiiiiiijjjjjjkkkkklllllmmmmmnnnnoooooppppqqqqrrrrssssttttuuuuvvvwwwwxxxxyyyzzzz...
(PID.TID 0000.0001) //    174 z...zzzyyyyxxxxwwwvvvvuuuuttttssssrrrrqqqqppppoooonnnnnmmmmlllllkkkkkkjjjjjiiiiiiihhhhhhhgggggggggffffffffffffffeeeeeeeeeeeeeeeeeeeeeeeeeeeeeffffffffffffffggggggggghhhhhhhiiiiiiijjjjjkkkkkklllllmmmmnnnnnooooppppqqqqrrrrssssttttuuuuvvvvwwwxxxxyyyyzzz...
(PID.TID 0000.0001) //    173 z...zzzyyyyxxxxwwwvvvvuuuutttssssrrrrqqqqppppooooonnnnmmmmmlllllkkkkkjjjjjiiiiiiihhhhhhhggggggggffffffffffffeeeeeeeeeeeeeeeeeeeeeeeeeeeeeeeeeeeeeffffffffffffgggggggghhhhhhhiiiiiiijjjjjkkkkklllllmmmmmnnnnoooooppppqqqqrrrrsssstttuuuuvvvvwwwxxxxyyyyzzz...
(PID.TID 0000.0001) //    172 z...zzzyyyyxxxxwwwvvvvuuuttttssssrrrrqqqqppppoooonnnnmmmmmlllllkkkkkjjjjjiiiiiihhhhhhhggggggggfffffffffffeeeeeeeeeeeeeeeeeeeeeeeeeeeeeeeeeeeeeeeeeeefffffffffffgggggggghhhhhhhiiiiiijjjjjkkkkklllllmmmmmnnnnooooppppqqqqrrrrssssttttuuuvvvvwwwxxxxyyyyzzz...
(PID.TID 0000.0001) //    171 z...zzzyyyyxxxwwwwvvvvuuuttttssssrrrrqqqppppooooonnnnmmmmlllllkkkkkjjjjjjiiiiihhhhhhhggggggggffffffffffeeeeeeeeeeeeeeeeeeeeeeeeeeeeeeeeeeeeeeeeeeeeeeeffffffffffgggggggghhhhhhhiiiiijjjjjjkkkkklllllmmmmnnnnoooooppppqqqrrrrssssttttuuuvvvvwwwwxxxyyyyzzz...
(PID.TID 0000.0001) //    170 z...zzzyyyyxxxwwwwvvvuuuuttttsssrrrrqqqqppppoooonnnnmmmmmlllllkkkkjjjjjjiiiiiihhhhhhgggggggffffffffffeeeeeeeeeeeeeeeedddddddddddddddddddeeeeeeeeeeeeeeeeffffffffffggggggghhhhhhiiiiiijjjjjjkkkklllllmmmmmnnnnooooppppqqqqrrrrsssttttuuuuvvvwwwwxxxyyyyzzz...
(PID.TID 0000.0001) //    169 z...zzzyyyyxxxwwwwvvvuuuutttssssrrrrqqqqppppoooonnnnmmmmlllllkkkkkjjjjjiiiiiihhhhhhgggggggfffffffffeeeeeeeeeeeeeedddddddddddddddddddddddddddeeeeeeeeeeeeeefffffffffggggggghhhhhhiiiiiijjjjjkkkkklllllmmmmnnnnooooppppqqqqrrrrsssstttuuuuvvvwwwwxxxyyyyzzz...
(PID.TID 0000.0001) //    168 z...zzzyyyyxxxwwwwvvvuuuutttssssrrrrqqqppppoooonnnnnmmmmllllkkkkkjjjjjiiiiiihhhhhhgggggggffffffffeeeeeeeeeeeedddddddddddddddddddddddddddddddddddeeeeeeeeeeeeffffffffggggggghhhhhhiiiiiijjjjjkkkkkllllmmmmnnnnnooooppppqqqrrrrsssstttuuuuvvvwwwwxxxyyyyzzz...
(PID.TID 0000.0001) //    167 z...zzzyyyyxxxwwwvvvvuuuttttssssrrrqqqqppppoooonnnnmmmmlllllkkkkkjjjjjiiiiihhhhhhgggggggffffffffeeeeeeeeeeedddddddddddddddddddddddddddddddddddddddeeeeeeeeeeeffffffffggggggghhhhhhiiiiijjjjjkkkkklllllmmmmnnnnooooppppqqqqrrrssssttttuuuvvvvwwwxxxyyyyzzz...
(PID.TID 0000.0001) //    166 z...zzzyyyyxxxwwwvvvvuuuttttsssrrrrqqqqppppoooonnnnmmmmllllkkkkkjjjjjiiiiihhhhhhgggggggfffffffeeeeeeeeeeedddddddddddddddddddddddddddddddddddddddddddeeeeeeeeeeefffffffggggggghhhhhhiiiiijjjjjkkkkkllllmmmmnnnnooooppppqqqqrrrrsssttttuuuvvvvwwwxxxyyyyzzz...
(PID.TID 0000.0001) //    165 z...zzzyyyxxxxwwwvvvvuuuttttsssrrrrqqqqpppoooonnnnmmmmlllllkkkkjjjjjiiiiihhhhhhgggggggfffffffeeeeeeeeeeddddddddddddddddddddcccccccddddddddddddddddddddeeeeeeeeeefffffffggggggghhhhhhiiiiijjjjjkkkklllllmmmmnnnnoooopppqqqqrrrrsssttttuuuvvvvwwwxxxxyyyzzz...
(PID.TID 0000.0001) //    164 z...zzzyyyxxxxwwwvvvvuuutttssssrrrrqqqppppoooonnnnmmmmllllkkkkkjjjjjiiiiihhhhhgggggggfffffffeeeeeeeeedddddddddddddddcccccccccccccccccccccdddddddddddddddeeeeeeeeefffffffggggggghhhhhiiiiijjjjjkkkkkllllmmmmnnnnooooppppqqqrrrrsssstttuuuvvvvwwwxxxxyyyzzz...
(PID.TID 0000.0001) //    163 z...zzzyyyxxxxwwwvvvuuuutttssssrrrqqqqppppoooonnnnmmmmllllkkkkjjjjjiiiiihhhhhhggggggfffffffeeeeeeeedddddddddddddcccccccccccccccccccccccccccccdddddddddddddeeeeeeeefffffffgggggghhhhhhiiiiijjjjjkkkkllllmmmmnnnnooooppppqqqqrrrsssstttuuuuvvvwwwxxxxyyyzzz...
(PID.TID 0000.0001) //    162 z...zzzyyyxxxxwwwvvvuuuutttssssrrrqqqqpppoooonnnnmmmmllllkkkkkjjjjiiiiihhhhhhggggggfffffffeeeeeeeeddddddddddddcccccccccccccccccccccccccccccccccddddddddddddeeeeeeeefffffffgggggghhhhhhiiiiijjjjkkkkkllllmmmmnnnnoooopppqqqqrrrsssstttuuuuvvvwwwxxxxyyyzzz...
(PID.TID 0000.0001) //    161 z...zzzyyyxxxxwwwvvvuuuutttsssrrrrqqqqpppoooonnnnmmmmllllkkkkjjjjjiiiiihhhhhggggggfffffffeeeeeeeeddddddddddcccccccccccccccccccccccccccccccccccccccddddddddddeeeeeeeefffffffgggggghhhhhiiiiijjjjjkkkkllllmmmmnnnnoooopppqqqqrrrrssstttuuuuvvvwwwxxxxyyyzzz...
(PID.TID 0000.0001) //    160 z...zzzyyyxxxwwwwvvvuuuttttsssrrrrqqqppppoooonnnmmmmlllllkkkkjjjjiiiiihhhhhggggggfffffffeeeeeeedddddddddddcccccccccccccccccccccccccccccccccccccccccdddddddddddeeeeeeefffffffgggggghhhhhiiiiijjjjkkkklllllmmmmnnnooooppppqqqrrrrsssttttuuuvvvwwwwxxxyyyzzz...
(PID.TID 0000.0001) //    159 z...zzzyyyxxxwwwwvvvuuuttttsssrrrrqqqppppooonnnnmmmmllllkkkkjjjjjiiiiihhhhhgggggfffffffeeeeeeeddddddddddcccccccccccccccccccccccccccccccccccccccccccccddddddddddeeeeeeefffffffggggghhhhhiiiiijjjjjkkkkllllmmmmnnnnoooppppqqqrrrrsssttttuuuvvvwwwwxxxyyyzzz...
(PID.TID 0000.0001) //    158 z...zzzyyyxxxwwwwvvvuuutttssssrrrqqqqpppoooonnnnmmmmllllkkkkjjjjiiiiihhhhhggggggffffffeeeeeeedddddddddcccccccccccccccccbbbbbbbbbbbbbbbcccccccccccccccccdddddddddeeeeeeeffffffgggggghhhhhiiiiijjjjkkkkllllmmmmnnnnoooopppqqqqrrrsssstttuuuvvvwwwwxxxyyyzzz...
(PID.TID 0000.0001) //    157 z...zzzyyyxxxwwwvvvvuuutttssssrrrqqqqpppoooonnnnmmmllllkkkkkjjjjiiiiihhhhhgggggffffffeeeeeeedddddddddccccccccccccccbbbbbbbbbbbbbbbbbbbbbbbccccccccccccccdddddddddeeeeeeeffffffggggghhhhhiiiiijjjjkkkkkllllmmmnnnnoooopppqqqqrrrsssstttuuuvvvvwwwxxxyyyzzz...
(PID.TID 0000.0001) //    156 z...zzzyyyxxxwwwvvvvuuutttssssrrrqqqppppoooonnnmmmmllllkkkkjjjjjiiiihhhhhgggggffffffeeeeeeedddddddddccccccccccccbbbbbbbbbbbbbbbbbbbbbbbbbbbbbccccccccccccdddddddddeeeeeeeffffffggggghhhhhiiiijjjjjkkkkllllmmmmnnnooooppppqqqrrrsssstttuuuvvvvwwwxxxyyyzzz...
(PID.TID 0000.0001) //    155 z...zzzyyyxxxwwwvvvvuuutttsssrrrrqqqppppooonnnnmmmmllllkkkkjjjjiiiiihhhhhgggggffffffeeeeeeddddddddccccccccccccbbbbbbbbbbbbbbbbbbbbbbbbbbbbbbbbbccccccccccccddddddddeeeeeeffffffggggghhhhhiiiiijjjjkkkkllllmmmmnnnnoooppppqqqrrrrssstttuuuvvvvwwwxxxyyyzzz...
(PID.TID 0000.0001) //    154 z...zzzyyyxxxwwwvvvuuuutttsssrrrrqqqppppooonnnnmmmmlllkkkkkjjjjiiiihhhhhgggggffffffeeeeeeedddddddcccccccccccbbbbbbbbbbbbbbbbbbbbbbbbbbbbbbbbbbbbbcccccccccccdddddddeeeeeeeffffffggggghhhhhiiiijjjjkkkkklllmmmmnnnnoooppppqqqrrrrssstttuuuuvvvwwwxxxyyyzzz...
(PID.TID 0000.0001) //    153 z...zzzyyyxxxwwwvvvuuuutttsssrrrqqqqpppoooonnnnmmmllllkkkkjjjjiiiiihhhhhgggggfffffeeeeeeedddddddcccccccccccbbbbbbbbbbbbbbbbbbbbbbbbbbbbbbbbbbbbbbbcccccccccccdddddddeeeeeeefffffggggghhhhhiiiiijjjjkkkkllllmmmnnnnoooopppqqqqrrrssstttuuuuvvvwwwxxxyyyzzz...
(PID.TID 0000.0001) //    152 z...zzzyyyxxxwwwvvvuuuttttsssrrrqqqqpppoooonnnmmmmllllkkkkjjjjiiiiihhhhgggggffffffeeeeeedddddddccccccccccbbbbbbbbbbbbbbbbbbbbbbbbbbbbbbbbbbbbbbbbbbbccccccccccdddddddeeeeeeffffffggggghhhhiiiiijjjjkkkkllllmmmmnnnoooopppqqqqrrrsssttttuuuvvvwwwxxxyyyzzz...
(PID.TID 0000.0001) //    151 z...zzzyyyxxxwwwvvvuuuttttsssrrrqqqqpppooonnnnmmmmllllkkkkjjjjiiiihhhhhgggggfffffeeeeeeddddddddcccccccccbbbbbbbbbbbbbbbbbbbbbbbbbbbbbbbbbbbbbbbbbbbbbcccccccccddddddddeeeeeefffffggggghhhhhiiiijjjjkkkkllllmmmmnnnnooopppqqqqrrrsssttttuuuvvvwwwxxxyyyzzz...
(PID.TID 0000.0001) //    150 z...zzzyyyxxxwwwvvvuuuttttsssrrrqqqppppooonnnnmmmmlllkkkkjjjjiiiiihhhhgggggffffffeeeeeedddddddcccccccccbbbbbbbbbbbbbbbbaaaaaaaaaaaaaaabbbbbbbbbbbbbbbbcccccccccdddddddeeeeeeffffffggggghhhhiiiiijjjjkkkklllmmmmnnnnoooppppqqqrrrsssttttuuuvvvwwwxxxyyyzzz...
(PID.TID 0000.0001) //    149 z...zzzyyyxxxwwwvvvuuutttssssrrrqqqppppooonnnnmmmllllkkkkjjjjiiiihhhhhgggggfffffeeeeeedddddddcccccccccbbbbbbbbbbbbbbaaaaaaaaaaaaaaaaaaaaabbbbbbbbbbbbbbcccccccccdddddddeeeeeefffffggggghhhhhiiiijjjjkkkkllllmmmnnnnoooppppqqqrrrsssstttuuuvvvwwwxxxyyyzzz...
(PID.TID 0000.0001) //    148 z...zzzyyyxxxwwwvvvuuutttssssrrrqqqpppoooonnnmmmmllllkkkkjjjjiiiihhhhhggggffffffeeeeeeddddddcccccccccbbbbbbbbbbbbbaaaaaaaaaaaaaaaaaaaaaaaaabbbbbbbbbbbbbcccccccccddddddeeeeeeffffffgggghhhhhiiiijjjjkkkkllllmmmmnnnoooopppqqqrrrsssstttuuuvvvwwwxxxyyyzzz...
(PID.TID 0000.0001) //    147 z...zzzyyyxxxwwwvvvuuutttsssrrrrqqqpppoooonnnmmmmllllkkkkjjjjiiiihhhhgggggfffffeeeeeedddddddccccccccbbbbbbbbbbbbaaaaaaaaaaaaaaaaaaaaaaaaaaaaabbbbbbbbbbbbccccccccdddddddeeeeeefffffggggghhhhiiiijjjjkkkkllllmmmmnnnoooopppqqqrrrrssstttuuuvvvwwwxxxyyyzzz...
(PID.TID 0000.0001) //    146 z...zzzyyyxxxwwwvvvuuutttsssrrrrqqqpppoooonnnmmmmlllkkkkjjjjiiiiihhhhgggggfffffeeeeeeddddddccccccccbbbbbbbbbbbaaaaaaaaaaaaaaaaaaaaaaaaaaaaaaaaabbbbbbbbbbbccccccccddddddeeeeeefffffggggghhhhiiiiijjjjkkkklllmmmmnnnoooopppqqqrrrrssstttuuuvvvwwwxxxyyyzzz...
(PID.TID 0000.0001) //    145 z...zzzyyyxxxwwwvvvuuutttsssrrrqqqqpppooonnnnmmmmlllkkkkjjjjiiiihhhhhggggfffffeeeeeedddddddcccccccbbbbbbbbbbbaaaaaaaaaaaaaaaaaaaaaaaaaaaaaaaaaaabbbbbbbbbbbcccccccdddddddeeeeeefffffgggghhhhhiiiijjjjkkkklllmmmmnnnnooopppqqqqrrrssstttuuuvvvwwwxxxyyyzzz...
(PID.TID 0000.0001) //    144 z...zzzyyyxxxwwwvvvuuutttsssrrrqqqqpppooonnnnmmmllllkkkkjjjjiiiihhhhgggggfffffeeeeeeddddddccccccccbbbbbbbbbbaaaaaaaaaaaaaaaaaaaaaaaaaaaaaaaaaaaaabbbbbbbbbbccccccccddddddeeeeeefffffggggghhhhiiiijjjjkkkkllllmmmnnnnooopppqqqqrrrssstttuuuvvvwwwxxxyyyzzz...
(PID.TID 0000.0001) //    143 z...zzzyyyxxxwwwvvvuuutttsssrrrqqqqpppooonnnnmmmllllkkkkjjjjiiiihhhhgggggfffffeeeeeddddddccccccccbbbbbbbbbbaaaaaaaaaaaaaaaaaaaaaaaaaaaaaaaaaaaaaaabbbbbbbbbbccccccccddddddeeeeefffffggggghhhhiiiijjjjkkkkllllmmmnnnnooopppqqqqrrrssstttuuuvvvwwwxxxyyyzzz...
(PID.TID 0000.0001) //    142 z...zzzyyyxxxwwwvvvuuutttsssrrrqqqppppooonnnnmmmllllkkkjjjjiiiihhhhhggggfffffeeeeeeddddddcccccccbbbbbbbbbbaaaaaaaaaaaaaaaaaaaaaaaaaaaaaaaaaaaaaaaaabbbbbbbbbbcccccccddddddeeeeeefffffgggghhhhhiiiijjjjkkkllllmmmnnnnoooppppqqqrrrssstttuuuvvvwwwxxxyyyzzz...
(PID.TID 0000.0001) //    141 z...zzzyyyxxxwwwvvvuuutttsssrrrqqqppppooonnnmmmmllllkkkjjjjiiiihhhhhggggfffffeeeeedddddddcccccccbbbbbbbbbaaaaaaaaaaaaaaaaaaaaaaaaaaaaaaaaaaaaaaaaaaabbbbbbbbbcccccccdddddddeeeeefffffgggghhhhhiiiijjjjkkkllllmmmmnnnoooppppqqqrrrssstttuuuvvvwwwxxxyyyzzz...
(PID.TID 0000.0001) //    140 z...zzzyyyxxxwwwvvvuuutttsssrrrqqqpppoooonnnmmmmlllkkkkjjjjiiiihhhhgggggfffffeeeeeddddddcccccccbbbbbbbbbaaaaaaaaaaaaaaaaaaaaaaaaaaaaaaaaaaaaaaaaaaaaabbbbbbbbbcccccccddddddeeeeefffffggggghhhhiiiijjjjkkkklllmmmmnnnoooopppqqqrrrssstttuuuvvvwwwxxxyyyzzz...
(PID.TID 0000.0001) //    139 z...zzzyyxxxwwwvvvvuuutttsssrrrqqqpppoooonnnmmmmlllkkkkjjjjiiiihhhhgggggfffffeeeeeddddddcccccccbbbbbbbbbaaaaaaaaaaaaaaaaa-----------aaaaaaaaaaaaaaaaabbbbbbbbbcccccccddddddeeeeefffffggggghhhhiiiijjjjkkkklllmmmmnnnoooopppqqqrrrssstttuuuvvvvwwwxxxyyzzz...
(PID.TID 0000.0001) //    138 z...zzyyyxxxwwwvvvuuuutttsssrrrqqqpppoooonnnmmmmlllkkkkjjjjiiiihhhhggggfffffeeeeeedddddcccccccbbbbbbbbbaaaaaaaaaaaaaaaa---------------aaaaaaaaaaaaaaaabbbbbbbbbcccccccdddddeeeeeefffffgggghhhhiiiijjjjkkkklllmmmmnnnoooopppqqqrrrssstttuuuuvvvwwwxxxyyyzz...
(PID.TID 0000.0001) //    137 z...zzyyyxxxwwwvvvuuuttttsssrrrqqqpppoooonnnmmmllllkkkkjjjjiiiihhhhggggfffffeeeeeddddddcccccccbbbbbbbbbaaaaaaaaaaaaaa-------------------aaaaaaaaaaaaaabbbbbbbbbcccccccddddddeeeeefffffgggghhhhiiiijjjjkkkkllllmmmnnnoooopppqqqrrrsssttttuuuvvvwwwxxxyyyzz...
(PID.TID 0000.0001) //    136 z...zzyyyxxxwwwvvvuuutttssssrrrqqqpppooonnnnmmmllllkkkkjjjiiiihhhhhggggfffffeeeeeddddddcccccccbbbbbbbbaaaaaaaaaaaaaa---------------------aaaaaaaaaaaaaabbbbbbbbcccccccddddddeeeeefffffgggghhhhhiiiijjjkkkkllllmmmnnnnooopppqqqrrrsssstttuuuvvvwwwxxxyyyzz...
(PID.TID 0000.0001) //    135 z...zzyyyxxxwwwvvvuuutttssssrrrqqqpppooonnnnmmmllllkkkjjjjiiiihhhhgggggfffffeeeeeddddddccccccbbbbbbbbbaaaaaaaaaaaaa-----------------------aaaaaaaaaaaaabbbbbbbbbccccccddddddeeeeefffffggggghhhhiiiijjjjkkkllllmmmnnnnooopppqqqrrrsssstttuuuvvvwwwxxxyyyzz...
(PID.TID 0000.0001) //    134 z...zzyyyxxxwwwvvvuuutttssssrrrqqqpppooonnnnmmmllllkkkjjjjiiiihhhhgggggffffeeeeeedddddcccccccbbbbbbbbaaaaaaaaaaaaa-------------------------aaaaaaaaaaaaabbbbbbbbcccccccdddddeeeeeeffffggggghhhhiiiijjjjkkkllllmmmnnnnooopppqqqrrrsssstttuuuvvvwwwxxxyyyzz...
(PID.TID 0000.0001) //    133 z...zzyyyxxxwwwvvvuuutttsssrrrrqqqpppooonnnnmmmllllkkkjjjjiiiihhhhgggggffffeeeeeddddddcccccccbbbbbbbbaaaaaaaaaaaa---------------------------aaaaaaaaaaaabbbbbbbbcccccccddddddeeeeeffffggggghhhhiiiijjjjkkkllllmmmnnnnooopppqqqrrrrssstttuuuvvvwwwxxxyyyzz...
(PID.TID 0000.0001) //    132 z...zzyyyxxxwwwvvvuuutttsssrrrrqqqpppooonnnnmmmllllkkkjjjjiiiihhhhggggfffffeeeeeddddddcccccccbbbbbbbbaaaaaaaaaaaa---------------------------aaaaaaaaaaaabbbbbbbbcccccccddddddeeeeefffffgggghhhhiiiijjjjkkkllllmmmnnnnooopppqqqrrrrssstttuuuvvvwwwxxxyyyzz...
(PID.TID 0000.0001) //    131 z...zzyyyxxxwwwvvvuuutttsssrrrrqqqpppooonnnnmmmlllkkkkjjjjiiiihhhhggggfffffeeeeeddddddccccccbbbbbbbbaaaaaaaaaaaa-----------------------------aaaaaaaaaaaabbbbbbbbccccccddddddeeeeefffffgggghhhhiiiijjjjkkkklllmmmnnnnooopppqqqrrrrssstttuuuvvvwwwxxxyyyzz...
(PID.TID 0000.0001) //    130 z...zzyyyxxxwwwvvvuuutttsssrrrqqqqpppooonnnmmmmlllkkkkjjjjiiiihhhhggggfffffeeeeeddddddccccccbbbbbbbbaaaaaaaaaaaa-----------------------------aaaaaaaaaaaabbbbbbbbccccccddddddeeeeefffffgggghhhhiiiijjjjkkkklllmmmmnnnooopppqqqqrrrssstttuuuvvvwwwxxxyyyzz...
(PID.TID 0000.0001) //    129 z...zzyyyxxxwwwvvvuuutttsssrrrqqqqpppooonnnmmmmlllkkkkjjjjiiiihhhhggggfffffeeeeeddddddccccccbbbbbbbbaaaaaaaaaaa-------------------------------aaaaaaaaaaabbbbbbbbccccccddddddeeeeefffffgggghhhhiiiijjjjkkkklllmmmmnnnooopppqqqqrrrssstttuuuvvvwwwxxxyyyzz...
(PID.TID 0000.0001) //    128 z...zzyyyxxxwwwvvvuuutttsssrrrqqqqpppooonnnmmmmlllkkkkjjjjiiiihhhhggggfffffeeeeeddddddccccccbbbbbbbbaaaaaaaaaaa-------------------------------aaaaaaaaaaabbbbbbbbccccccddddddeeeeefffffgggghhhhiiiijjjjkkkklllmmmmnnnooopppqqqqrrrssstttuuuvvvwwwxxxyyyzz...
(PID.TID 0000.0001) //    127 z...zzyyyxxxwwwvvvuuutttsssrrrqqqqpppooonnnmmmmlllkkkkjjjjiiiihhhhggggfffffeeeeedddddcccccccbbbbbbbbaaaaaaaaaaa-------------------------------aaaaaaaaaaabbbbbbbbcccccccdddddeeeeefffffgggghhhhiiiijjjjkkkklllmmmmnnnooopppqqqqrrrssstttuuuvvvwwwxxxyyyzz...
(PID.TID 0000.0001) //    126 z...zzyyyxxxwwwvvvuuutttsssrrrqqqqpppooonnnmmmmlllkkkkjjjjiiiihhhhggggfffffeeeeedddddcccccccbbbbbbbbaaaaaaaaaaa-------------------------------aaaaaaaaaaabbbbbbbbcccccccdddddeeeeefffffgggghhhhiiiijjjjkkkklllmmmmnnnooopppqqqqrrrssstttuuuvvvwwwxxxyyyzz...
(PID.TID 0000.0001) //    125 z...zzyyyxxxwwwvvvuuutttsssrrrqqqqpppooonnnmmmmlllkkkkjjjjiiiihhhhggggfffffeeeeedddddcccccccbbbbbbbbaaaaaaaaaaa-------------------------------aaaaaaaaaaabbbbbbbbcccccccdddddeeeeefffffgggghhhhiiiijjjjkkkklllmmmmnnnooopppqqqqrrrssstttuuuvvvwwwxxxyyyzz...
(PID.TID 0000.0001) //    124 z...zzyyyxxxwwwvvvuuutttsssrrrqqqqpppooonnnmmmmlllkkkkjjjjiiiihhhhggggfffffeeeeedddddcccccccbbbbbbbbaaaaaaaaaaa-------------------------------aaaaaaaaaaabbbbbbbbcccccccdddddeeeeefffffgggghhhhiiiijjjjkkkklllmmmmnnnooopppqqqqrrrssstttuuuvvvwwwxxxyyyzz...
(PID.TID 0000.0001) //    123 z...zzyyyxxxwwwvvvuuutttsssrrrqqqqpppooonnnmmmmlllkkkkjjjjiiiihhhhggggfffffeeeeedddddcccccccbbbbbbbbaaaaaaaaaaa-------------------------------aaaaaaaaaaabbbbbbbbcccccccdddddeeeeefffffgggghhhhiiiijjjjkkkklllmmmmnnnooopppqqqqrrrssstttuuuvvvwwwxxxyyyzz...
(PID.TID 0000.0001) //    122 z...zzyyyxxxwwwvvvuuutttsssrrrqqqqpppooonnnmmmmlllkkkkjjjjiiiihhhhggggfffffeeeeedddddcccccccbbbbbbbbaaaaaaaaaaa-------------------------------aaaaaaaaaaabbbbbbbbcccccccdddddeeeeefffffgggghhhhiiiijjjjkkkklllmmmmnnnooopppqqqqrrrssstttuuuvvvwwwxxxyyyzz...
(PID.TID 0000.0001) //    121 z...zzyyyxxxwwwvvvuuutttsssrrrqqqqpppooonnnmmmmlllkkkkjjjjiiiihhhhggggfffffeeeeeddddddccccccbbbbbbbbaaaaaaaaaaa-------------------------------aaaaaaaaaaabbbbbbbbccccccddddddeeeeefffffgggghhhhiiiijjjjkkkklllmmmmnnnooopppqqqqrrrssstttuuuvvvwwwxxxyyyzz...
(PID.TID 0000.0001) //    120 z...zzyyyxxxwwwvvvuuutttsssrrrqqqqpppooonnnmmmmlllkkkkjjjjiiiihhhhggggfffffeeeeeddddddccccccbbbbbbbbaaaaaaaaaaa-------------------------------aaaaaaaaaaabbbbbbbbccccccddddddeeeeefffffgggghhhhiiiijjjjkkkklllmmmmnnnooopppqqqqrrrssstttuuuvvvwwwxxxyyyzz...
(PID.TID 0000.0001) //    119 z...zzyyyxxxwwwvvvuuutttsssrrrqqqqpppooonnnmmmmlllkkkkjjjjiiiihhhhggggfffffeeeeeddddddccccccbbbbbbbbaaaaaaaaaaaa-----------------------------aaaaaaaaaaaabbbbbbbbccccccddddddeeeeefffffgggghhhhiiiijjjjkkkklllmmmmnnnooopppqqqqrrrssstttuuuvvvwwwxxxyyyzz...
(PID.TID 0000.0001) //    118 z...zzyyyxxxwwwvvvuuutttsssrrrrqqqpppooonnnnmmmlllkkkkjjjjiiiihhhhggggfffffeeeeeddddddccccccbbbbbbbbaaaaaaaaaaaa-----------------------------aaaaaaaaaaaabbbbbbbbccccccddddddeeeeefffffgggghhhhiiiijjjjkkkklllmmmnnnnooopppqqqrrrrssstttuuuvvvwwwxxxyyyzz...
(PID.TID 0000.0001) //    117 z...zzyyyxxxwwwvvvuuutttsssrrrrqqqpppooonnnnmmmllllkkkjjjjiiiihhhhggggfffffeeeeeddddddcccccccbbbbbbbbaaaaaaaaaaaa---------------------------aaaaaaaaaaaabbbbbbbbcccccccddddddeeeeefffffgggghhhhiiiijjjjkkkllllmmmnnnnooopppqqqrrrrssstttuuuvvvwwwxxxyyyzz...
(PID.TID 0000.0001) //    116 z...zzyyyxxxwwwvvvuuutttsssrrrrqqqpppooonnnnmmmllllkkkjjjjiiiihhhhgggggffffeeeeeddddddcccccccbbbbbbbbaaaaaaaaaaaa---------------------------aaaaaaaaaaaabbbbbbbbcccccccddddddeeeeeffffggggghhhhiiiijjjjkkkllllmmmnnnnooopppqqqrrrrssstttuuuvvvwwwxxxyyyzz...
(PID.TID 0000.0001) //    115 z...zzyyyxxxwwwvvvuuutttssssrrrqqqpppooonnnnmmmllllkkkjjjjiiiihhhhgggggffffeeeeeedddddcccccccbbbbbbbbaaaaaaaaaaaaa-------------------------aaaaaaaaaaaaabbbbbbbbcccccccdddddeeeeeeffffggggghhhhiiiijjjjkkkllllmmmnnnnooopppqqqrrrsssstttuuuvvvwwwxxxyyyzz...
(PID.TID 0000.0001) //    114 z...zzyyyxxxwwwvvvuuutttssssrrrqqqpppooonnnnmmmllllkkkjjjjiiiihhhhgggggfffffeeeeeddddddccccccbbbbbbbbbaaaaaaaaaaaaa-----------------------aaaaaaaaaaaaabbbbbbbbbccccccddddddeeeeefffffggggghhhhiiiijjjjkkkllllmmmnnnnooopppqqqrrrsssstttuuuvvvwwwxxxyyyzz...
(PID.TID 0000.0001) //    113 z...zzyyyxxxwwwvvvuuutttssssrrrqqqpppooonnnnmmmllllkkkkjjjiiiihhhhhggggfffffeeeeeddddddcccccccbbbbbbbbaaaaaaaaaaaaaa---------------------aaaaaaaaaaaaaabbbbbbbbcccccccddddddeeeeefffffgggghhhhhiiiijjjkkkkllllmmmnnnnooopppqqqrrrsssstttuuuvvvwwwxxxyyyzz...
(PID.TID 0000.0001) //    112 z...zzyyyxxxwwwvvvuuuttttsssrrrqqqpppoooonnnmmmllllkkkkjjjjiiiihhhhggggfffffeeeeeddddddcccccccbbbbbbbbbaaaaaaaaaaaaaa-------------------aaaaaaaaaaaaaabbbbbbbbbcccccccddddddeeeeefffffgggghhhhiiiijjjjkkkkllllmmmnnnoooopppqqqrrrsssttttuuuvvvwwwxxxyyyzz...
(PID.TID 0000.0001) //    111 z...zzyyyxxxwwwvvvuuuutttsssrrrqqqpppoooonnnmmmmlllkkkkjjjjiiiihhhhggggfffffeeeeeedddddcccccccbbbbbbbbbaaaaaaaaaaaaaaaa---------------aaaaaaaaaaaaaaaabbbbbbbbbcccccccdddddeeeeeefffffgggghhhhiiiijjjjkkkklllmmmmnnnoooopppqqqrrrssstttuuuuvvvwwwxxxyyyzz...
(PID.TID 0000.0001) //    110 z...zzzyyxxxwwwvvvvuuutttsssrrrqqqpppoooonnnmmmmlllkkkkjjjjiiiihhhhgggggfffffeeeeeddddddcccccccbbbbbbbbbaaaaaaaaaaaaaaaaa-----------aaaaaaaaaaaaaaaaabbbbbbbbbcccccccddddddeeeeefffffggggghhhhiiiijjjjkkkklllmmmmnnnoooopppqqqrrrssstttuuuvvvvwwwxxxyyzzz...
(PID.TID 0000.0001) //    109 z...zzzyyyxxxwwwvvvuuutttsssrrrqqqpppoooonnnmmmmlllkkkkjjjjiiiihhhhgggggfffffeeeeeddddddcccccccbbbbbbbbbaaaaaaaaaaaaaaaaaaaaaaaaaaaaaaaaaaaaaaaaaaaaabbbbbbbbbcccccccddddddeeeeefffffggggghhhhiiiijjjjkkkklllmmmmnnnoooopppqqqrrrssstttuuuvvvwwwxxxyyyzzz...
(PID.TID 0000.0001) //    108 z...zzzyyyxxxwwwvvvuuutttsssrrrqqqppppooonnnmmmmllllkkkjjjjiiiihhhhhggggfffffeeeeedddddddcccccccbbbbbbbbbaaaaaaaaaaaaaaaaaaaaaaaaaaaaaaaaaaaaaaaaaaabbbbbbbbbcccccccdddddddeeeeefffffgggghhhhhiiiijjjjkkkllllmmmmnnnoooppppqqqrrrssstttuuuvvvwwwxxxyyyzzz...
(PID.TID 0000.0001) //    107 z...zzzyyyxxxwwwvvvuuutttsssrrrqqqppppooonnnnmmmllllkkkjjjjiiiihhhhhggggfffffeeeeeeddddddcccccccbbbbbbbbbbaaaaaaaaaaaaaaaaaaaaaaaaaaaaaaaaaaaaaaaaabbbbbbbbbbcccccccddddddeeeeeefffffgggghhhhhiiiijjjjkkkllllmmmnnnnoooppppqqqrrrssstttuuuvvvwwwxxxyyyzzz...
(PID.TID 0000.0001) //    106 z...zzzyyyxxxwwwvvvuuutttsssrrrqqqqpppooonnnnmmmllllkkkkjjjjiiiihhhhgggggfffffeeeeeddddddccccccccbbbbbbbbbbaaaaaaaaaaaaaaaaaaaaaaaaaaaaaaaaaaaaaaabbbbbbbbbbccccccccddddddeeeeefffffggggghhhhiiiijjjjkkkkllllmmmnnnnooopppqqqqrrrssstttuuuvvvwwwxxxyyyzzz...
(PID.TID 0000.0001) //    105 z...zzzyyyxxxwwwvvvuuutttsssrrrqqqqpppooonnnnmmmllllkkkkjjjjiiiihhhhgggggfffffeeeeeeddddddccccccccbbbbbbbbbbaaaaaaaaaaaaaaaaaaaaaaaaaaaaaaaaaaaaabbbbbbbbbbccccccccddddddeeeeeefffffggggghhhhiiiijjjjkkkkllllmmmnnnnooopppqqqqrrrssstttuuuvvvwwwxxxyyyzzz...
(PID.TID 0000.0001) //    104 z...zzzyyyxxxwwwvvvuuutttsssrrrqqqqpppooonnnnmmmmlllkkkkjjjjiiiihhhhhggggfffffeeeeeedddddddcccccccbbbbbbbbbbbaaaaaaaaaaaaaaaaaaaaaaaaaaaaaaaaaaabbbbbbbbbbbcccccccdddddddeeeeeefffffgggghhhhhiiiijjjjkkkklllmmmmnnnnooopppqqqqrrrssstttuuuvvvwwwxxxyyyzzz...
(PID.TID 0000.0001) //    103 z...zzzyyyxxxwwwvvvuuutttsssrrrrqqqpppoooonnnmmmmlllkkkkjjjjiiiiihhhhgggggfffffeeeeeeddddddccccccccbbbbbbbbbbbaaaaaaaaaaaaaaaaaaaaaaaaaaaaaaaaabbbbbbbbbbbccccccccddddddeeeeeefffffggggghhhhiiiiijjjjkkkklllmmmmnnnoooopppqqqrrrrssstttuuuvvvwwwxxxyyyzzz...
(PID.TID 0000.0001) //    102 z...zzzyyyxxxwwwvvvuuutttsssrrrrqqqpppoooonnnmmmmllllkkkkjjjjiiiihhhhgggggfffffeeeeeedddddddccccccccbbbbbbbbbbbbaaaaaaaaaaaaaaaaaaaaaaaaaaaaabbbbbbbbbbbbccccccccdddddddeeeeeefffffggggghhhhiiiijjjjkkkkllllmmmmnnnoooopppqqqrrrrssstttuuuvvvwwwxxxyyyzzz...
(PID.TID 0000.0001) //    101 z...zzzyyyxxxwwwvvvuuutttssssrrrqqqpppoooonnnmmmmllllkkkkjjjjiiiihhhhhggggffffffeeeeeeddddddcccccccccbbbbbbbbbbbbbaaaaaaaaaaaaaaaaaaaaaaaaabbbbbbbbbbbbbcccccccccddddddeeeeeeffffffgggghhhhhiiiijjjjkkkkllllmmmmnnnoooopppqqqrrrsssstttuuuvvvwwwxxxyyyzzz...
(PID.TID 0000.0001) //    100 z...zzzyyyxxxwwwvvvuuutttssssrrrqqqppppooonnnnmmmllllkkkkjjjjiiiihhhhhgggggfffffeeeeeedddddddcccccccccbbbbbbbbbbbbbbaaaaaaaaaaaaaaaaaaaaabbbbbbbbbbbbbbcccccccccdddddddeeeeeefffffggggghhhhhiiiijjjjkkkkllllmmmnnnnoooppppqqqrrrsssstttuuuvvvwwwxxxyyyzzz...
(PID.TID 0000.0001) //     99 z...zzzyyyxxxwwwvvvuuuttttsssrrrqqqppppooonnnnmmmmlllkkkkjjjjiiiiihhhhgggggffffffeeeeeedddddddcccccccccbbbbbbbbbbbbbbbbaaaaaaaaaaaaaaabbbbbbbbbbbbbbbbcccccccccdddddddeeeeeeffffffggggghhhhiiiiijjjjkkkklllmmmmnnnnoooppppqqqrrrsssttttuuuvvvwwwxxxyyyzzz...
(PID.TID 0000.0001) //     98 z...zzzyyyxxxwwwvvvuuuttttsssrrrqqqqpppooonnnnmmmmllllkkkkjjjjiiiihhhhhgggggfffffeeeeeeddddddddcccccccccbbbbbbbbbbbbbbbbbbbbbbbbbbbbbbbbbbbbbbbbbbbbbcccccccccddddddddeeeeeefffffggggghhhhhiiiijjjjkkkkllllmmmmnnnnooopppqqqqrrrsssttttuuuvvvwwwxxxyyyzzz...
(PID.TID 0000.0001) //     97 z...zzzyyyxxxwwwvvvuuuttttsssrrrqqqqpppoooonnnmmmmllllkkkkjjjjiiiiihhhhgggggffffffeeeeeedddddddccccccccccbbbbbbbbbbbbbbbbbbbbbbbbbbbbbbbbbbbbbbbbbbbccccccccccdddddddeeeeeeffffffggggghhhhiiiiijjjjkkkkllllmmmmnnnoooopppqqqqrrrsssttttuuuvvvwwwxxxyyyzzz...
(PID.TID 0000.0001) //     96 z...zzzyyyxxxwwwvvvuuuutttsssrrrqqqqpppoooonnnnmmmllllkkkkjjjjiiiiihhhhhgggggfffffeeeeeeedddddddcccccccccccbbbbbbbbbbbbbbbbbbbbbbbbbbbbbbbbbbbbbbbcccccccccccdddddddeeeeeeefffffggggghhhhhiiiiijjjjkkkkllllmmmnnnnoooopppqqqqrrrssstttuuuuvvvwwwxxxyyyzzz...
(PID.TID 0000.0001) //     95 z...zzzyyyxxxwwwvvvuuuutttsssrrrrqqqppppooonnnnmmmmlllkkkkkjjjjiiiihhhhhgggggffffffeeeeeeedddddddcccccccccccbbbbbbbbbbbbbbbbbbbbbbbbbbbbbbbbbbbbbcccccccccccdddddddeeeeeeeffffffggggghhhhhiiiijjjjkkkkklllmmmmnnnnoooppppqqqrrrrssstttuuuuvvvwwwxxxyyyzzz...
(PID.TID 0000.0001) //     94 z...zzzyyyxxxwwwvvvvuuutttsssrrrrqqqppppooonnnnmmmmllllkkkkjjjjiiiiihhhhhgggggffffffeeeeeeddddddddccccccccccccbbbbbbbbbbbbbbbbbbbbbbbbbbbbbbbbbccccccccccccddddddddeeeeeeffffffggggghhhhhiiiiijjjjkkkkllllmmmmnnnnoooppppqqqrrrrssstttuuuvvvvwwwxxxyyyzzz...
(PID.TID 0000.0001) //     93 z...zzzyyyxxxwwwvvvvuuutttssssrrrqqqppppoooonnnmmmmllllkkkkjjjjjiiiihhhhhgggggffffffeeeeeeedddddddddccccccccccccbbbbbbbbbbbbbbbbbbbbbbbbbbbbbccccccccccccdddddddddeeeeeeeffffffggggghhhhhiiiijjjjjkkkkllllmmmmnnnooooppppqqqrrrsssstttuuuvvvvwwwxxxyyyzzz...
(PID.TID 0000.0001) //     92 z...zzzyyyxxxwwwvvvvuuutttssssrrrqqqqpppoooonnnnmmmllllkkkkkjjjjiiiiihhhhhgggggffffffeeeeeeedddddddddccccccccccccccbbbbbbbbbbbbbbbbbbbbbbbccccccccccccccdddddddddeeeeeeeffffffggggghhhhhiiiiijjjjkkkkkllllmmmnnnnoooopppqqqqrrrsssstttuuuvvvvwwwxxxyyyzzz...
(PID.TID 0000.0001) //     91 z...zzzyyyxxxwwwwvvvuuutttssssrrrqqqqpppoooonnnnmmmmllllkkkkjjjjiiiiihhhhhggggggffffffeeeeeeedddddddddcccccccccccccccccbbbbbbbbbbbbbbbcccccccccccccccccdddddddddeeeeeeeffffffgggggghhhhhiiiiijjjjkkkkllllmmmmnnnnoooopppqqqqrrrsssstttuuuvvvwwwwxxxyyyzzz...
(PID.TID 0000.0001) //     90 z...zzzyyyxxxwwwwvvvuuuttttsssrrrrqqqppppooonnnnmmmmllllkkkkjjjjjiiiiihhhhhgggggfffffffeeeeeeeddddddddddcccccccccccccccccccccccccccccccccccccccccccccddddddddddeeeeeeefffffffggggghhhhhiiiiijjjjjkkkkllllmmmmnnnnoooppppqqqrrrrsssttttuuuvvvwwwwxxxyyyzzz...
(PID.TID 0000.0001) //     89 z...zzzyyyxxxwwwwvvvuuuttttsssrrrrqqqppppoooonnnmmmmlllllkkkkjjjjiiiiihhhhhggggggfffffffeeeeeeedddddddddddcccccccccccccccccccccccccccccccccccccccccdddddddddddeeeeeeefffffffgggggghhhhhiiiiijjjjkkkklllllmmmmnnnooooppppqqqrrrrsssttttuuuvvvwwwwxxxyyyzzz...
(PID.TID 0000.0001) //     88 z...zzzyyyxxxxwwwvvvuuuutttsssrrrrqqqqpppoooonnnnmmmmllllkkkkjjjjjiiiiihhhhhggggggfffffffeeeeeeeeddddddddddcccccccccccccccccccccccccccccccccccccccddddddddddeeeeeeeefffffffgggggghhhhhiiiiijjjjjkkkkllllmmmmnnnnoooopppqqqqrrrrssstttuuuuvvvwwwxxxxyyyzzz...
(PID.TID 0000.0001) //     87 z...zzzyyyxxxxwwwvvvuuuutttssssrrrqqqqpppoooonnnnmmmmllllkkkkkjjjjiiiiihhhhhhggggggfffffffeeeeeeeeddddddddddddcccccccccccccccccccccccccccccccccddddddddddddeeeeeeeefffffffgggggghhhhhhiiiiijjjjkkkkkllllmmmmnnnnoooopppqqqqrrrsssstttuuuuvvvwwwxxxxyyyzzz...
(PID.TID 0000.0001) //     86 z...zzzyyyxxxxwwwvvvuuuutttssssrrrqqqqppppoooonnnnmmmmllllkkkkjjjjjiiiiihhhhhhggggggfffffffeeeeeeeedddddddddddddcccccccccccccccccccccccccccccdddddddddddddeeeeeeeefffffffgggggghhhhhhiiiiijjjjjkkkkllllmmmmnnnnooooppppqqqqrrrsssstttuuuuvvvwwwxxxxyyyzzz...
(PID.TID 0000.0001) //     85 z...zzzyyyxxxxwwwvvvvuuutttssssrrrrqqqppppoooonnnnmmmmllllkkkkkjjjjjiiiiihhhhhgggggggfffffffeeeeeeeeedddddddddddddddcccccccccccccccccccccdddddddddddddddeeeeeeeeefffffffggggggghhhhhiiiiijjjjjkkkkkllllmmmmnnnnooooppppqqqrrrrsssstttuuuvvvvwwwxxxxyyyzzz...
(PID.TID 0000.0001) //     84 z...zzzyyyxxxxwwwvvvvuuuttttsssrrrrqqqqpppoooonnnnmmmmlllllkkkkjjjjjiiiiihhhhhhgggggggfffffffeeeeeeeeeeddddddddddddddddddddcccccccddddddddddddddddddddeeeeeeeeeefffffffggggggghhhhhhiiiiijjjjjkkkklllllmmmmnnnnoooopppqqqqrrrrsssttttuuuvvvvwwwxxxxyyyzzz...
(PID.TID 0000.0001) //     83 z...zzzyyyyxxxwwwvvvvuuuttttsssrrrrqqqqppppoooonnnnmmmmllllkkkkkjjjjjiiiiihhhhhhgggggggfffffffeeeeeeeeeeedddddddddddddddddddddddddddddddddddddddddddeeeeeeeeeeefffffffggggggghhhhhhiiiiijjjjjkkkkkllllmmmmnnnnooooppppqqqqrrrrsssttttuuuvvvvwwwxxxyyyyzzz...
(PID.TID 0000.0001) //     82 z...zzzyyyyxxxwwwvvvvuuuttttssssrrrqqqqppppoooonnnnmmmmlllllkkkkkjjjjjiiiiihhhhhhgggggggffffffffeeeeeeeeeeedddddddddddddddddddddddddddddddddddddddeeeeeeeeeeeffffffffggggggghhhhhhiiiiijjjjjkkkkklllllmmmmnnnnooooppppqqqqrrrssssttttuuuvvvvwwwxxxyyyyzzz...
(PID.TID 0000.0001) //     81 z...zzzyyyyxxxwwwwvvvuuuutttssssrrrrqqqppppoooonnnnnmmmmllllkkkkkjjjjjiiiiiihhhhhhgggggggffffffffeeeeeeeeeeeedddddddddddddddddddddddddddddddddddeeeeeeeeeeeeffffffffggggggghhhhhhiiiiiijjjjjkkkkkllllmmmmnnnnnooooppppqqqrrrrsssstttuuuuvvvwwwwxxxyyyyzzz...
(PID.TID 0000.0001) //     80 z...zzzyyyyxxxwwwwvvvuuuutttssssrrrrqqqqppppoooonnnnmmmmlllllkkkkkjjjjjiiiiiihhhhhhgggggggfffffffffeeeeeeeeeeeeeedddddddddddddddddddddddddddeeeeeeeeeeeeeefffffffffggggggghhhhhhiiiiiijjjjjkkkkklllllmmmmnnnnooooppppqqqqrrrrsssstttuuuuvvvwwwwxxxyyyyzzz...
(PID.TID 0000.0001) //     79 z...zzzyyyyxxxwwwwvvvuuuuttttsssrrrrqqqqppppoooonnnnmmmmmlllllkkkkjjjjjjiiiiiihhhhhhgggggggffffffffffeeeeeeeeeeeeeeeedddddddddddddddddddeeeeeeeeeeeeeeeeffffffffffggggggghhhhhhiiiiiijjjjjjkkkklllllmmmmmnnnnooooppppqqqqrrrrsssttttuuuuvvvwwwwxxxyyyyzzz...
(PID.TID 0000.0001) //     78 z...zzzyyyyxxxwwwwvvvvuuuttttssssrrrrqqqppppooooonnnnmmmmlllllkkkkkjjjjjjiiiiihhhhhhhggggggggffffffffffeeeeeeeeeeeeeeeeeeeeeeeeeeeeeeeeeeeeeeeeeeeeeeeffffffffffgggggggghhhhhhhiiiiijjjjjjkkkkklllllmmmmnnnnoooooppppqqqrrrrssssttttuuuvvvvwwwwxxxyyyyzzz...
(PID.TID 0000.0001) //     77 z...zzzyyyyxxxxwwwvvvvuuuttttssssrrrrqqqqppppoooonnnnmmmmmlllllkkkkkjjjjjiiiiiihhhhhhhggggggggfffffffffffeeeeeeeeeeeeeeeeeeeeeeeeeeeeeeeeeeeeeeeeeeefffffffffffgggggggghhhhhhhiiiiiijjjjjkkkkklllllmmmmmnnnnooooppppqqqqrrrrssssttttuuuvvvvwwwxxxxyyyyzzz...
(PID.TID 0000.0001) //     76 z...zzzyyyyxxxxwwwvvvvuuuutttssssrrrrqqqqppppooooonnnnmmmmmlllllkkkkkjjjjjiiiiiiihhhhhhhggggggggffffffffffffeeeeeeeeeeeeeeeeeeeeeeeeeeeeeeeeeeeeeffffffffffffgggggggghhhhhhhiiiiiiijjjjjkkkkklllllmmmmmnnnnoooooppppqqqqrrrrsssstttuuuuvvvvwwwxxxxyyyyzzz...
(PID.TID 0000.0001) //     75 z...zzzyyyyxxxxwwwvvvvuuuuttttssssrrrrqqqqppppoooonnnnnmmmmlllllkkkkkkjjjjjiiiiiiihhhhhhhgggggggggffffffffffffffeeeeeeeeeeeeeeeeeeeeeeeeeeeeeffffffffffffffggggggggghhhhhhhiiiiiiijjjjjkkkkkklllllmmmmnnnnnooooppppqqqqrrrrssssttttuuuuvvvvwwwxxxxyyyyzzz...
(PID.TID 0000.0001) //     74 z...zzzzyyyxxxxwwwwvvvuuuuttttssssrrrrqqqqppppooooonnnnmmmmmlllllkkkkkjjjjjjiiiiiiihhhhhhhggggggggggffffffffffffffffeeeeeeeeeeeeeeeeeeeeeffffffffffffffffgggggggggghhhhhhhiiiiiiijjjjjjkkkkklllllmmmmmnnnnoooooppppqqqqrrrrssssttttuuuuvvvwwwwxxxxyyyzzzz...
(PID.TID 0000.0001) //     73 z...zzzzyyyxxxxwwwwvvvvuuuttttssssrrrrqqqqpppppoooonnnnnmmmmmlllllkkkkkjjjjjjiiiiiiihhhhhhhhggggggggggfffffffffffffffffffffffffffffffffffffffffffffffffgggggggggghhhhhhhhiiiiiiijjjjjjkkkkklllllmmmmmnnnnnoooopppppqqqqrrrrssssttttuuuvvvvwwwwxxxxyyyzzzz...
(PID.TID 0000.0001) //     72 z...zzzzyyyxxxxwwwwvvvvuuuuttttssssrrrrqqqqppppooooonnnnmmmmmllllllkkkkkjjjjjjiiiiiiihhhhhhhhhgggggggggggfffffffffffffffffffffffffffffffffffffffffffggggggggggghhhhhhhhhiiiiiiijjjjjjkkkkkllllllmmmmmnnnnoooooppppqqqqrrrrssssttttuuuuvvvvwwwwxxxxyyyzzzz...
(PID.TID 0000.0001) //     71 z...zzzzyyyxxxxwwwwvvvvuuuuttttssssrrrrqqqqpppppoooonnnnnmmmmmlllllkkkkkkjjjjjjjiiiiiiihhhhhhhhhggggggggggggfffffffffffffffffffffffffffffffffffffgggggggggggghhhhhhhhhiiiiiiijjjjjjjkkkkkklllllmmmmmnnnnnoooopppppqqqqrrrrssssttttuuuuvvvvwwwwxxxxyyyzzzz...
(PID.TID 0000.0001) //     70 z...zzzzyyyyxxxwwwwvvvvuuuuttttssssrrrrqqqqqppppooooonnnnnmmmmmlllllkkkkkkjjjjjjjiiiiiiihhhhhhhhhhggggggggggggggfffffffffffffffffffffffffffffgggggggggggggghhhhhhhhhhiiiiiiijjjjjjjkkkkkklllllmmmmmnnnnnoooooppppqqqqqrrrrssssttttuuuuvvvvwwwwxxxyyyyzzzz...
(PID.TID 0000.0001) //     69 z...zzzzyyyyxxxxwwwvvvvuuuuttttsssssrrrrqqqqpppppooooonnnnmmmmmmlllllkkkkkkjjjjjjjiiiiiiiihhhhhhhhhhggggggggggggggggggfffffffffffffffffgggggggggggggggggghhhhhhhhhhiiiiiiiijjjjjjjkkkkkklllllmmmmmmnnnnooooopppppqqqqrrrrsssssttttuuuuvvvvwwwxxxxyyyyzzzz...
(PID.TID 0000.0001) //     68 z...zzzzyyyyxxxxwwwwvvvvuuuuttttssssrrrrqqqqqppppooooonnnnnmmmmmmlllllkkkkkkkjjjjjjjiiiiiiiihhhhhhhhhhhggggggggggggggggggggggggggggggggggggggggggggggghhhhhhhhhhhiiiiiiiijjjjjjjkkkkkkklllllmmmmmmnnnnnoooooppppqqqqqrrrrssssttttuuuuvvvvwwwwxxxxyyyyzzzz...
(PID.TID 0000.0001) //     67 z...zzzzyyyyxxxxwwwwvvvvuuuuttttssssrrrrrqqqqpppppooooonnnnnmmmmmllllllkkkkkkkjjjjjjjiiiiiiiiihhhhhhhhhhhhggggggggggggggggggggggggggggggggggggggggghhhhhhhhhhhhiiiiiiiiijjjjjjjkkkkkkkllllllmmmmmnnnnnooooopppppqqqqrrrrrssssttttuuuuvvvvwwwwxxxxyyyyzzzz...
(PID.TID 0000.0001) //     66 z...zzzzyyyyxxxxwwwwvvvvuuuutttttssssrrrrqqqqqpppppooooonnnnnmmmmmllllllkkkkkkkjjjjjjjjiiiiiiiiihhhhhhhhhhhhhhggggggggggggggggggggggggggggggggghhhhhhhhhhhhhhiiiiiiiiijjjjjjjjkkkkkkkllllllmmmmmnnnnnooooopppppqqqqqrrrrsssstttttuuuuvvvvwwwwxxxxyyyyzzzz...
(PID.TID 0000.0001) //     65 z...zzzzyyyyxxxxwwwwvvvvuuuuuttttssssrrrrrqqqqpppppooooonnnnnnmmmmmlllllllkkkkkkjjjjjjjjiiiiiiiiiiihhhhhhhhhhhhhhhhggggggggggggggggggggggghhhhhhhhhhhhhhhhiiiiiiiiiiijjjjjjjjkkkkkklllllllmmmmmnnnnnnooooopppppqqqqrrrrrssssttttuuuuuvvvvwwwwxxxxyyyyzzzz...
(PID.TID 0000.0001) //     64 z...zzzzyyyyxxxxwwwwvvvvvuuuuttttsssssrrrrqqqqqpppppooooonnnnnnmmmmmlllllllkkkkkkkjjjjjjjjiiiiiiiiiiihhhhhhhhhhhhhhhhhhhhhhhhhhhhhhhhhhhhhhhhhhhhhhhhhhhiiiiiiiiiiijjjjjjjjkkkkkkklllllllmmmmmnnnnnnooooopppppqqqqqrrrrsssssttttuuuuvvvvvwwwwxxxxyyyyzzzz...
(PID.TID 0000.0001) //     63 z...zzzzyyyyxxxxxwwwwvvvvuuuutttttssssrrrrrqqqqqpppppooooonnnnnnmmmmmmllllllkkkkkkkkjjjjjjjjiiiiiiiiiiiiihhhhhhhhhhhhhhhhhhhhhhhhhhhhhhhhhhhhhhhhhhhiiiiiiiiiiiiijjjjjjjjkkkkkkkkllllllmmmmmmnnnnnnooooopppppqqqqqrrrrrsssstttttuuuuvvvvwwwwxxxxxyyyyzzzz...
(PID.TID 0000.0001) //     62 z...zzzzyyyyxxxxxwwwwvvvvuuuuuttttsssssrrrrqqqqqpppppoooooonnnnnnmmmmmmlllllllkkkkkkkjjjjjjjjjjiiiiiiiiiiiiihhhhhhhhhhhhhhhhhhhhhhhhhhhhhhhhhhhhhiiiiiiiiiiiiijjjjjjjjjjkkkkkkklllllllmmmmmmnnnnnnoooooopppppqqqqqrrrrsssssttttuuuuuvvvvwwwwxxxxxyyyyzzzz...
(PID.TID 0000.0001) //     61 z...zzzzyyyyyxxxxwwwwvvvvvuuuutttttssssrrrrrqqqqqpppppoooooonnnnnnmmmmmmlllllllkkkkkkkkjjjjjjjjjjiiiiiiiiiiiiiiiiihhhhhhhhhhhhhhhhhhhhhhhhhiiiiiiiiiiiiiiiiijjjjjjjjjjkkkkkkkklllllllmmmmmmnnnnnnoooooopppppqqqqqrrrrrsssstttttuuuuvvvvvwwwwxxxxyyyyyzzzz...
(PID.TID 0000.0001) //     60 z...zzzzyyyyyxxxxwwwwvvvvvuuuutttttsssssrrrrrqqqqqpppppoooooonnnnnnmmmmmmllllllllkkkkkkkkjjjjjjjjjjjiiiiiiiiiiiiiiiiiiiiiiiiiiiiiiiiiiiiiiiiiiiiiiiiiiiiijjjjjjjjjjjkkkkkkkkllllllllmmmmmmnnnnnnoooooopppppqqqqqrrrrrssssstttttuuuuvvvvvwwwwxxxxyyyyyzzzz...
(PID.TID 0000.0001) //     59 z...zzzzzyyyyxxxxwwwwwvvvvuuuuutttttssssrrrrrqqqqqqpppppoooooonnnnnnmmmmmmmlllllllkkkkkkkkkjjjjjjjjjjjjjiiiiiiiiiiiiiiiiiiiiiiiiiiiiiiiiiiiiiiiiiiiiijjjjjjjjjjjjjkkkkkkkkklllllllmmmmmmmnnnnnnoooooopppppqqqqqqrrrrrsssstttttuuuuuvvvvwwwwwxxxxyyyyzzzzz...
(PID.TID 0000.0001) //     58 z...zzzzzyyyyxxxxxwwwwvvvvvuuuutttttsssssrrrrrqqqqqppppppoooooonnnnnnmmmmmmmllllllllkkkkkkkkkkjjjjjjjjjjjjjjiiiiiiiiiiiiiiiiiiiiiiiiiiiiiiiiiiiiijjjjjjjjjjjjjjkkkkkkkkkkllllllllmmmmmmmnnnnnnooooooppppppqqqqqrrrrrssssstttttuuuuvvvvvwwwwxxxxxyyyyzzzzz...
(PID.TID 0000.0001) //     57 z...zzzzzyyyyxxxxxwwwwvvvvvuuuuutttttsssssrrrrrqqqqqppppppoooooonnnnnnmmmmmmmmllllllllkkkkkkkkkkkjjjjjjjjjjjjjjjjjiiiiiiiiiiiiiiiiiiiiiiiiijjjjjjjjjjjjjjjjjkkkkkkkkkkkllllllllmmmmmmmmnnnnnnooooooppppppqqqqqrrrrrssssstttttuuuuuvvvvvwwwwxxxxxyyyyzzzzz...
(PID.TID 0000.0001) //     56 z...zzzzzyyyyxxxxxwwwwwvvvvuuuuutttttsssssrrrrrqqqqqqppppppoooooonnnnnnnmmmmmmmlllllllllkkkkkkkkkkkkjjjjjjjjjjjjjjjjjjjjjjjjjjjjjjjjjjjjjjjjjjjjjjjjjjjjjkkkkkkkkkkkklllllllllmmmmmmmnnnnnnnooooooppppppqqqqqqrrrrrssssstttttuuuuuvvvvwwwwwxxxxxyyyyzzzzz...
(PID.TID 0000.0001) //     55 z...zzzzzyyyyyxxxxwwwwwvvvvvuuuuutttttsssssrrrrrqqqqqqppppppoooooonnnnnnnmmmmmmmmllllllllllkkkkkkkkkkkkkjjjjjjjjjjjjjjjjjjjjjjjjjjjjjjjjjjjjjjjjjjjjjkkkkkkkkkkkkkllllllllllmmmmmmmmnnnnnnnooooooppppppqqqqqqrrrrrssssstttttuuuuuvvvvvwwwwwxxxxyyyyyzzzzz...
(PID.TID 0000.0001) //     54 z...zzzzzyyyyyxxxxxwwwwvvvvvuuuuutttttssssssrrrrrqqqqqqppppppooooooonnnnnnnmmmmmmmmllllllllllkkkkkkkkkkkkkkkjjjjjjjjjjjjjjjjjjjjjjjjjjjjjjjjjjjjjkkkkkkkkkkkkkkkllllllllllmmmmmmmmnnnnnnnoooooooppppppqqqqqqrrrrrsssssstttttuuuuuvvvvvwwwwxxxxxyyyyyzzzzz...
(PID.TID 0000.0001) //     53 z...zzzzzyyyyyxxxxxwwwwwvvvvvuuuuutttttsssssrrrrrrqqqqqqppppppooooooonnnnnnnnmmmmmmmmlllllllllllkkkkkkkkkkkkkkkkkkkjjjjjjjjjjjjjjjjjjjjjjjkkkkkkkkkkkkkkkkkkklllllllllllmmmmmmmmnnnnnnnnoooooooppppppqqqqqqrrrrrrssssstttttuuuuuvvvvvwwwwwxxxxxyyyyyzzzzz...
(PID.TID 0000.0001) //     52 z...zzzzzyyyyyxxxxxwwwwwvvvvvuuuuuttttttsssssrrrrrrqqqqqqppppppoooooooonnnnnnnmmmmmmmmmmllllllllllllkkkkkkkkkkkkkkkkkkkkkkkkkkkkkkkkkkkkkkkkkkkkkkkkkkkkkllllllllllllmmmmmmmmmmnnnnnnnooooooooppppppqqqqqqrrrrrrsssssttttttuuuuuvvvvvwwwwwxxxxxyyyyyzzzzz...
(PID.TID 0000.0001) //     51 +...+zzzzyyyyyxxxxxwwwwwvvvvvvuuuuutttttssssssrrrrrrqqqqqqpppppppooooooonnnnnnnnmmmmmmmmmmllllllllllllllkkkkkkkkkkkkkkkkkkkkkkkkkkkkkkkkkkkkkkkkkkkkkllllllllllllllmmmmmmmmmmnnnnnnnnooooooopppppppqqqqqqrrrrrrsssssstttttuuuuuvvvvvvwwwwwxxxxxyyyyyzzzz+...
(PID.TID 0000.0001) //     50 +...+zzzzzyyyyyxxxxxwwwwwvvvvvuuuuuttttttssssssrrrrrrqqqqqqpppppppoooooooonnnnnnnnnmmmmmmmmmmlllllllllllllllllkkkkkkkkkkkkkkkkkkkkkkkkkkkkkkkkklllllllllllllllllmmmmmmmmmmnnnnnnnnnoooooooopppppppqqqqqqrrrrrrssssssttttttuuuuuvvvvvwwwwwxxxxxyyyyyzzzzz+...
(PID.TID 0000.0001) //     49 +...+zzzzzyyyyyxxxxxwwwwwvvvvvvuuuuuttttttssssssrrrrrrqqqqqqqpppppppoooooooonnnnnnnnnmmmmmmmmmmmmllllllllllllllllllllllkkkkkkkkkkkkkkkllllllllllllllllllllllmmmmmmmmmmmmnnnnnnnnnoooooooopppppppqqqqqqqrrrrrrssssssttttttuuuuuvvvvvvwwwwwxxxxxyyyyyzzzzz+...
(PID.TID 0000.0001) //     48 +...+zzzzzyyyyyxxxxxwwwwwwvvvvvuuuuuuttttttssssssrrrrrrqqqqqqqpppppppooooooooonnnnnnnnnnmmmmmmmmmmmmmlllllllllllllllllllllllllllllllllllllllllllllllllllmmmmmmmmmmmmmnnnnnnnnnnooooooooopppppppqqqqqqqrrrrrrssssssttttttuuuuuuvvvvvwwwwwwxxxxxyyyyyzzzzz+...
(PID.TID 0000.0001) //     47 +...+zzzzzyyyyyxxxxxxwwwwwvvvvvvuuuuuttttttsssssssrrrrrrqqqqqqqppppppppooooooooonnnnnnnnnnmmmmmmmmmmmmmmmmlllllllllllllllllllllllllllllllllllllllllmmmmmmmmmmmmmmmmnnnnnnnnnnoooooooooppppppppqqqqqqqrrrrrrsssssssttttttuuuuuvvvvvvwwwwwxxxxxxyyyyyzzzzz+...
(PID.TID 0000.0001) //     46 +...+zzzzzyyyyyyxxxxxwwwwwwvvvvvuuuuuuttttttsssssssrrrrrrqqqqqqqqppppppppooooooooonnnnnnnnnnnnmmmmmmmmmmmmmmmmmmmlllllllllllllllllllllllllllmmmmmmmmmmmmmmmmmmmnnnnnnnnnnnnoooooooooppppppppqqqqqqqqrrrrrrsssssssttttttuuuuuuvvvvvwwwwwwxxxxxyyyyyyzzzzz+...
(PID.TID 0000.0001) //     45 +...+zzzzzyyyyyyxxxxxwwwwwwvvvvvvuuuuuuttttttsssssssrrrrrrrqqqqqqqpppppppppoooooooooonnnnnnnnnnnnnmmmmmmmmmmmmmmmmmmmmmmmmmmmmmmmmmmmmmmmmmmmmmmmmmmmmmmmmmnnnnnnnnnnnnnoooooooooopppppppppqqqqqqqrrrrrrrsssssssttttttuuuuuuvvvvvvwwwwwwxxxxxyyyyyyzzzzz+...
(PID.TID 0000.0001) //     44 +...+zzzzzyyyyyyxxxxxxwwwwwwvvvvvvuuuuuuttttttsssssssrrrrrrrqqqqqqqqpppppppppooooooooooonnnnnnnnnnnnnnmmmmmmmmmmmmmmmmmmmmmmmmmmmmmmmmmmmmmmmmmmmmmmmmmnnnnnnnnnnnnnnooooooooooopppppppppqqqqqqqqrrrrrrrsssssssttttttuuuuuuvvvvvvwwwwwwxxxxxxyyyyyyzzzzz+...
(PID.TID 0000.0001) //     43 +...+zzzzzzyyyyyxxxxxxwwwwwwvvvvvvuuuuuuuttttttsssssssrrrrrrrrqqqqqqqqpppppppppoooooooooooonnnnnnnnnnnnnnnnnnmmmmmmmmmmmmmmmmmmmmmmmmmmmmmmmmmmmnnnnnnnnnnnnnnnnnnoooooooooooopppppppppqqqqqqqqrrrrrrrrsssssssttttttuuuuuuuvvvvvvwwwwwwxxxxxxyyyyyzzzzzz+...
(PID.TID 0000.0001) //     42 +...+zzzzzzyyyyyyxxxxxxwwwwwwvvvvvvuuuuuuuttttttssssssssrrrrrrrqqqqqqqqqppppppppppooooooooooooonnnnnnnnnnnnnnnnnnnnnnnnnmmmmmmmmmmmmmnnnnnnnnnnnnnnnnnnnnnnnnnoooooooooooooppppppppppqqqqqqqqqrrrrrrrssssssssttttttuuuuuuuvvvvvvwwwwwwxxxxxxyyyyyyzzzzzz+...
(PID.TID 0000.0001) //     41 +...+zzzzzzyyyyyyxxxxxxwwwwwwvvvvvvvuuuuuuutttttttsssssssrrrrrrrrqqqqqqqqqpppppppppppoooooooooooooonnnnnnnnnnnnnnnnnnnnnnnnnnnnnnnnnnnnnnnnnnnnnnnnnnnnnnnoooooooooooooopppppppppppqqqqqqqqqrrrrrrrrssssssstttttttuuuuuuuvvvvvvvwwwwwwxxxxxxyyyyyyzzzzzz+...
(PID.TID 0000.0001) //     40 +...+zzzzzzyyyyyyxxxxxxxwwwwwwvvvvvvvuuuuuuutttttttssssssssrrrrrrrrqqqqqqqqqqpppppppppppooooooooooooooooonnnnnnnnnnnnnnnnnnnnnnnnnnnnnnnnnnnnnnnnnnnooooooooooooooooopppppppppppqqqqqqqqqqrrrrrrrrsssssssstttttttuuuuuuuvvvvvvvwwwwwwxxxxxxxyyyyyyzzzzzz+...
(PID.TID 0000.0001) //     39 +...+zzzzzzyyyyyyyxxxxxxwwwwwwwvvvvvvvuuuuuuutttttttssssssssrrrrrrrrrqqqqqqqqqqpppppppppppppoooooooooooooooooooooonnnnnnnnnnnnnnnnnnnnnnnnnoooooooooooooooooooooopppppppppppppqqqqqqqqqqrrrrrrrrrsssssssstttttttuuuuuuuvvvvvvvwwwwwwwxxxxxxyyyyyyyzzzzzz+...
(PID.TID 0000.0001) //     38 +...+zzzzzzzyyyyyyxxxxxxxwwwwwwwvvvvvvvuuuuuuuttttttttssssssssrrrrrrrrrqqqqqqqqqqqpppppppppppppppooooooooooooooooooooooooooooooooooooooooooooooooooooooooooopppppppppppppppqqqqqqqqqqqrrrrrrrrrssssssssttttttttuuuuuuuvvvvvvvwwwwwwwxxxxxxxyyyyyyzzzzzzz+...
(PID.TID 0000.0001) //     37 +...+zzzzzzzyyyyyyyxxxxxxwwwwwwwvvvvvvvvuuuuuuuttttttttsssssssssrrrrrrrrrrqqqqqqqqqqqqppppppppppppppppoooooooooooooooooooooooooooooooooooooooooooooooooppppppppppppppppqqqqqqqqqqqqrrrrrrrrrrsssssssssttttttttuuuuuuuvvvvvvvvwwwwwwwxxxxxxyyyyyyyzzzzzzz+...
(PID.TID 0000.0001) //     36 +...+zzzzzzzyyyyyyyxxxxxxxwwwwwwwvvvvvvvvuuuuuuutttttttttsssssssssrrrrrrrrrrrqqqqqqqqqqqqqppppppppppppppppppppoooooooooooooooooooooooooooooooooppppppppppppppppppppqqqqqqqqqqqqqrrrrrrrrrrrssssssssstttttttttuuuuuuuvvvvvvvvwwwwwwwxxxxxxxyyyyyyyzzzzzzz+...
(PID.TID 0000.0001) //     35 +...++zzzzzzyyyyyyyyxxxxxxxwwwwwwwvvvvvvvvuuuuuuuutttttttttsssssssssrrrrrrrrrrrrqqqqqqqqqqqqqqpppppppppppppppppppppppppppppppppppppppppppppppppppppppppppppppppqqqqqqqqqqqqqqrrrrrrrrrrrrssssssssstttttttttuuuuuuuuvvvvvvvvwwwwwwwxxxxxxxyyyyyyyyzzzzzz++...
(PID.TID 0000.0001) //     34 +...++zzzzzzzyyyyyyyxxxxxxxwwwwwwwwvvvvvvvvuuuuuuuuttttttttttssssssssssrrrrrrrrrrrrqqqqqqqqqqqqqqqqqpppppppppppppppppppppppppppppppppppppppppppppppppppppqqqqqqqqqqqqqqqqqrrrrrrrrrrrrssssssssssttttttttttuuuuuuuuvvvvvvvvwwwwwwwwxxxxxxxyyyyyyyzzzzzzz++...
(PID.TID 0000.0001) //     33 +...++zzzzzzzyyyyyyyyxxxxxxxwwwwwwwwvvvvvvvvuuuuuuuuuttttttttttsssssssssssrrrrrrrrrrrrrqqqqqqqqqqqqqqqqqqqqqpppppppppppppppppppppppppppppppppppppqqqqqqqqqqqqqqqqqqqqqrrrrrrrrrrrrrsssssssssssttttttttttuuuuuuuuuvvvvvvvvwwwwwwwwxxxxxxxyyyyyyyyzzzzzzz++...
(PID.TID 0000.0001) //     32 +...++zzzzzzzyyyyyyyyxxxxxxxxwwwwwwwwvvvvvvvvvuuuuuuuuuttttttttttssssssssssssrrrrrrrrrrrrrrrqqqqqqqqqqqqqqqqqqqqqqqqqqqqqqqqqqqqqqqqqqqqqqqqqqqqqqqqqqqqqqqqqqqqqrrrrrrrrrrrrrrrssssssssssssttttttttttuuuuuuuuuvvvvvvvvvwwwwwwwwxxxxxxxxyyyyyyyyzzzzzzz++...
(PID.TID 0000.0001) //     31 +...++zzzzzzzzyyyyyyyyxxxxxxxxwwwwwwwwvvvvvvvvvuuuuuuuuuutttttttttttssssssssssssrrrrrrrrrrrrrrrrrqqqqqqqqqqqqqqqqqqqqqqqqqqqqqqqqqqqqqqqqqqqqqqqqqqqqqqqqqqqrrrrrrrrrrrrrrrrrsssssssssssstttttttttttuuuuuuuuuuvvvvvvvvvwwwwwwwwxxxxxxxxyyyyyyyyzzzzzzzz++...
(PID.TID 0000.0001) //     30 +...++zzzzzzzzyyyyyyyyxxxxxxxxxwwwwwwwwwvvvvvvvvvuuuuuuuuuutttttttttttssssssssssssssrrrrrrrrrrrrrrrrrrrrrqqqqqqqqqqqqqqqqqqqqqqqqqqqqqqqqqqqqqqqqqqqrrrrrrrrrrrrrrrrrrrrrsssssssssssssstttttttttttuuuuuuuuuuvvvvvvvvvwwwwwwwwwxxxxxxxxxyyyyyyyyzzzzzzzz++...
(PID.TID 0000.0001) //     29 +...++zzzzzzzzzyyyyyyyyxxxxxxxxxwwwwwwwwwvvvvvvvvvvuuuuuuuuuutttttttttttttsssssssssssssssrrrrrrrrrrrrrrrrrrrrrrrrrrrrrrrqqqqqqqqqqqqqrrrrrrrrrrrrrrrrrrrrrrrrrrrrrrrssssssssssssssstttttttttttttuuuuuuuuuuvvvvvvvvvvwwwwwwwwwxxxxxxxxxyyyyyyyyzzzzzzzzz++...
(PID.TID 0000.0001) //     28 +...++zzzzzzzzzyyyyyyyyyxxxxxxxxxwwwwwwwwwvvvvvvvvvvvuuuuuuuuuuutttttttttttttssssssssssssssssssrrrrrrrrrrrrrrrrrrrrrrrrrrrrrrrrrrrrrrrrrrrrrrrrrrrrrrrrrrrrrrrsssssssssssssssssstttttttttttttuuuuuuuuuuuvvvvvvvvvvvwwwwwwwwwxxxxxxxxxyyyyyyyyyzzzzzzzzz++...
(PID.TID 0000.0001) //     27 +...+++zzzzzzzzzyyyyyyyyyxxxxxxxxxwwwwwwwwwwvvvvvvvvvvvuuuuuuuuuuuuttttttttttttttssssssssssssssssssssssrrrrrrrrrrrrrrrrrrrrrrrrrrrrrrrrrrrrrrrrrrrrrrrssssssssssssssssssssssttttttttttttttuuuuuuuuuuuuvvvvvvvvvvvwwwwwwwwwwxxxxxxxxxyyyyyyyyyzzzzzzzzz+++...
(PID.TID 0000.0001) //     26 +...+++zzzzzzzzzyyyyyyyyyyxxxxxxxxxwwwwwwwwwwwvvvvvvvvvvvuuuuuuuuuuuuuttttttttttttttttsssssssssssssssssssssssssssssssrrrrrrrrrrrrrrrrrrrsssssssssssssssssssssssssssssssttttttttttttttttuuuuuuuuuuuuuvvvvvvvvvvvwwwwwwwwwwwxxxxxxxxxyyyyyyyyyyzzzzzzzzz+++...
(PID.TID 0000.0001) //     25 +...+++zzzzzzzzzzyyyyyyyyyxxxxxxxxxxxwwwwwwwwwwwvvvvvvvvvvvvuuuuuuuuuuuuuuttttttttttttttttttsssssssssssssssssssssssssssssssssssssssssssssssssssssssssssssssssssssttttttttttttttttttuuuuuuuuuuuuuuvvvvvvvvvvvvwwwwwwwwwwwxxxxxxxxxxxyyyyyyyyyzzzzzzzzzz+++...
(PID.TID 0000.0001) //     24 +...+++zzzzzzzzzzyyyyyyyyyyyxxxxxxxxxxwwwwwwwwwwwwvvvvvvvvvvvvvuuuuuuuuuuuuuuutttttttttttttttttttttttssssssssssssssssssssssssssssssssssssssssssssssssssstttttttttttttttttttttttuuuuuuuuuuuuuuuvvvvvvvvvvvvvwwwwwwwwwwwwxxxxxxxxxxyyyyyyyyyyyzzzzzzzzzz+++...
(PID.TID 0000.0001) //     23 +...+++zzzzzzzzzzzyyyyyyyyyyyxxxxxxxxxxxwwwwwwwwwwwwvvvvvvvvvvvvvvuuuuuuuuuuuuuuuuutttttttttttttttttttttttttttttttssssssssssssssssssssssssstttttttttttttttttttttttttttttttuuuuuuuuuuuuuuuuuvvvvvvvvvvvvvvwwwwwwwwwwwwxxxxxxxxxxxyyyyyyyyyyyzzzzzzzzzzz+++...
(PID.TID 0000.0001) //     22 +...++++zzzzzzzzzzzyyyyyyyyyyyxxxxxxxxxxxxwwwwwwwwwwwwwvvvvvvvvvvvvvvvuuuuuuuuuuuuuuuuuuuutttttttttttttttttttttttttttttttttttttttttttttttttttttttttttttttttttttttttuuuuuuuuuuuuuuuuuuuuvvvvvvvvvvvvvvvwwwwwwwwwwwwwxxxxxxxxxxxxyyyyyyyyyyyzzzzzzzzzzz++++...
(PID.TID 0000.0001) //     21 +...++++zzzzzzzzzzzyyyyyyyyyyyyxxxxxxxxxxxxxwwwwwwwwwwwwwwvvvvvvvvvvvvvvvvvuuuuuuuuuuuuuuuuuuuuuuutttttttttttttttttttttttttttttttttttttttttttttttttttttttttuuuuuuuuuuuuuuuuuuuuuuuvvvvvvvvvvvvvvvvvwwwwwwwwwwwwwwxxxxxxxxxxxxxyyyyyyyyyyyyzzzzzzzzzzz++++...
(PID.TID 0000.0001) //     20 +...++++zzzzzzzzzzzzyyyyyyyyyyyyyxxxxxxxxxxxxxwwwwwwwwwwwwwwwvvvvvvvvvvvvvvvvvvvuuuuuuuuuuuuuuuuuuuuuuuuuuuuuuuuutttttttttttttttttttttttttttuuuuuuuuuuuuuuuuuuuuuuuuuuuuuuuuuvvvvvvvvvvvvvvvvvvvwwwwwwwwwwwwwwwxxxxxxxxxxxxxyyyyyyyyyyyyyzzzzzzzzzzzz++++...
(PID.TID 0000.0001) //     19 +...+++++zzzzzzzzzzzzyyyyyyyyyyyyyyxxxxxxxxxxxxxxwwwwwwwwwwwwwwwwvvvvvvvvvvvvvvvvvvvvvvuuuuuuuuuuuuuuuuuuuuuuuuuuuuuuuuuuuuuuuuuuuuuuuuuuuuuuuuuuuuuuuuuuuuuuuuuuuuuuuvvvvvvvvvvvvvvvvvvvvvvwwwwwwwwwwwwwwwwxxxxxxxxxxxxxxyyyyyyyyyyyyyyzzzzzzzzzzzz+++++...
(PID.TID 0000.0001) //     18 +...+++++zzzzzzzzzzzzzyyyyyyyyyyyyyyyxxxxxxxxxxxxxxxwwwwwwwwwwwwwwwwwwvvvvvvvvvvvvvvvvvvvvvvvvvvuuuuuuuuuuuuuuuuuuuuuuuuuuuuuuuuuuuuuuuuuuuuuuuuuuuuuuuuuuuuuvvvvvvvvvvvvvvvvvvvvvvvvvvwwwwwwwwwwwwwwwwwwxxxxxxxxxxxxxxxyyyyyyyyyyyyyyyzzzzzzzzzzzzz+++++...
(PID.TID 0000.0001) //     17 +...+++++zzzzzzzzzzzzzzzyyyyyyyyyyyyyyyxxxxxxxxxxxxxxxxxwwwwwwwwwwwwwwwwwwwwvvvvvvvvvvvvvvvvvvvvvvvvvvvvvvvvvvvvuuuuuuuuuuuuuuuuuuuuuuuuuuuuuvvvvvvvvvvvvvvvvvvvvvvvvvvvvvvvvvvvvwwwwwwwwwwwwwwwwwwwwxxxxxxxxxxxxxxxxxyyyyyyyyyyyyyyyzzzzzzzzzzzzzzz+++++...
(PID.TID 0000.0001) //     16 +...++++++zzzzzzzzzzzzzzzyyyyyyyyyyyyyyyyxxxxxxxxxxxxxxxxxxxwwwwwwwwwwwwwwwwwwwwwwwvvvvvvvvvvvvvvvvvvvvvvvvvvvvvvvvvvvvvvvvvvvvvvvvvvvvvvvvvvvvvvvvvvvvvvvvvvvvvvvvvvvvvvvwwwwwwwwwwwwwwwwwwwwwwwxxxxxxxxxxxxxxxxxxxyyyyyyyyyyyyyyyyzzzzzzzzzzzzzzz++++++...
(PID.TID 0000.0001) //     15 +...++++++zzzzzzzzzzzzzzzzzyyyyyyyyyyyyyyyyyxxxxxxxxxxxxxxxxxxxxxwwwwwwwwwwwwwwwwwwwwwwwwwwwwvvvvvvvvvvvvvvvvvvvvvvvvvvvvvvvvvvvvvvvvvvvvvvvvvvvvvvvvvvvvvvvvvvvwwwwwwwwwwwwwwwwwwwwwwwwwwwwxxxxxxxxxxxxxxxxxxxxxyyyyyyyyyyyyyyyyyzzzzzzzzzzzzzzzzz++++++...
(PID.TID 0000.0001) //     14 +...+++++++zzzzzzzzzzzzzzzzzzyyyyyyyyyyyyyyyyyyyxxxxxxxxxxxxxxxxxxxxxxxwwwwwwwwwwwwwwwwwwwwwwwwwwwwwwwwwwwwwwwwvvvvvvvvvvvvvvvvvvvvvvvvvvvvvvvwwwwwwwwwwwwwwwwwwwwwwwwwwwwwwwwwwwwwwwwxxxxxxxxxxxxxxxxxxxxxxxyyyyyyyyyyyyyyyyyyyzzzzzzzzzzzzzzzzzz+++++++...
(PID.TID 0000.0001) //     13 +...++++++++zzzzzzzzzzzzzzzzzzzyyyyyyyyyyyyyyyyyyyyyxxxxxxxxxxxxxxxxxxxxxxxxxxxwwwwwwwwwwwwwwwwwwwwwwwwwwwwwwwwwwwwwwwwwwwwwwwwwwwwwwwwwwwwwwwwwwwwwwwwwwwwwwwwwwwwwwwwwwwwwwwxxxxxxxxxxxxxxxxxxxxxxxxxxxyyyyyyyyyyyyyyyyyyyyyzzzzzzzzzzzzzzzzzzz++++++++...
(PID.TID 0000.0001) //     12 +...++++++++zzzzzzzzzzzzzzzzzzzzzyyyyyyyyyyyyyyyyyyyyyyyyxxxxxxxxxxxxxxxxxxxxxxxxxxxxxxxxxwwwwwwwwwwwwwwwwwwwwwwwwwwwwwwwwwwwwwwwwwwwwwwwwwwwwwwwwwwwwwwwwwwwwwwwwwxxxxxxxxxxxxxxxxxxxxxxxxxxxxxxxxxyyyyyyyyyyyyyyyyyyyyyyyyzzzzzzzzzzzzzzzzzzzzz++++++++...
(PID.TID 0000.0001) //     11 +...+++++++++zzzzzzzzzzzzzzzzzzzzzzzyyyyyyyyyyyyyyyyyyyyyyyyyyyxxxxxxxxxxxxxxxxxxxxxxxxxxxxxxxxxxxxxxxxxxxxxxxxwwwwwwwwwwwwwwwwwwwwwwwwwwwwwwwxxxxxxxxxxxxxxxxxxxxxxxxxxxxxxxxxxxxxxxxxxxxxxxxyyyyyyyyyyyyyyyyyyyyyyyyyyyzzzzzzzzzzzzzzzzzzzzzzz+++++++++...
(PID.TID 0000.0001) //     10 +...+++++++++++zzzzzzzzzzzzzzzzzzzzzzzzzyyyyyyyyyyyyyyyyyyyyyyyyyyyyyyyyxxxxxxxxxxxxxxxxxxxxxxxxxxxxxxxxxxxxxxxxxxxxxxxxxxxxxxxxxxxxxxxxxxxxxxxxxxxxxxxxxxxxxxxxxxxxxxxxxxxxxxxxxxxxxyyyyyyyyyyyyyyyyyyyyyyyyyyyyyyyyzzzzzzzzzzzzzzzzzzzzzzzzz+++++++++++...
(PID.TID 0000.0001) //      9 +...++++++++++++zzzzzzzzzzzzzzzzzzzzzzzzzzzzzyyyyyyyyyyyyyyyyyyyyyyyyyyyyyyyyyyyyyyyyxxxxxxxxxxxxxxxxxxxxxxxxxxxxxxxxxxxxxxxxxxxxxxxxxxxxxxxxxxxxxxxxxxxxxxxxxxxxxxxxxxxyyyyyyyyyyyyyyyyyyyyyyyyyyyyyyyyyyyyyyyyzzzzzzzzzzzzzzzzzzzzzzzzzzzzz++++++++++++...
(PID.TID 0000.0001) //      8 +...++++++++++++++zzzzzzzzzzzzzzzzzzzzzzzzzzzzzzzzzzyyyyyyyyyyyyyyyyyyyyyyyyyyyyyyyyyyyyyyyyyyyyyyyyyyyyyyyyyyyxxxxxxxxxxxxxxxxxxxxxxxxxxxxxxxyyyyyyyyyyyyyyyyyyyyyyyyyyyyyyyyyyyyyyyyyyyyyyyyyyyyyyyyyyyzzzzzzzzzzzzzzzzzzzzzzzzzzzzzzzzzz++++++++++++++...
(PID.TID 0000.0001) //      7 +...+++++++++++++++++zzzzzzzzzzzzzzzzzzzzzzzzzzzzzzzzzzzzzzzzyyyyyyyyyyyyyyyyyyyyyyyyyyyyyyyyyyyyyyyyyyyyyyyyyyyyyyyyyyyyyyyyyyyyyyyyyyyyyyyyyyyyyyyyyyyyyyyyyyyyyyyyyyyyyyyyyyyyyyyyyyyyyyyyyyyzzzzzzzzzzzzzzzzzzzzzzzzzzzzzzzzzzzzzzzz+++++++++++++++++...
(PID.TID 0000.0001) //      6 +...++++++++++++++++++++zzzzzzzzzzzzzzzzzzzzzzzzzzzzzzzzzzzzzzzzzzzzzzzzzzzzyyyyyyyyyyyyyyyyyyyyyyyyyyyyyyyyyyyyyyyyyyyyyyyyyyyyyyyyyyyyyyyyyyyyyyyyyyyyyyyyyyyyyyyyyyyyyyyyyyyyyzzzzzzzzzzzzzzzzzzzzzzzzzzzzzzzzzzzzzzzzzzzzzzzzzzzz++++++++++++++++++++...
(PID.TID 0000.0001) //      5 +...+++++++++++++++++++++++++zzzzzzzzzzzzzzzzzzzzzzzzzzzzzzzzzzzzzzzzzzzzzzzzzzzzzzzzzzzzzzzzzzzzzzzzzzzzzzzzzzzyyyyyyyyyyyyyyyyyyyyyyyyyyyyyzzzzzzzzzzzzzzzzzzzzzzzzzzzzzzzzzzzzzzzzzzzzzzzzzzzzzzzzzzzzzzzzzzzzzzzzzzzzzzzzzzz+++++++++++++++++++++++++...
(PID.TID 0000.0001) //      4 +...+++++++++++++++++++++++++++++++++zzzzzzzzzzzzzzzzzzzzzzzzzzzzzzzzzzzzzzzzzzzzzzzzzzzzzzzzzzzzzzzzzzzzzzzzzzzzzzzzzzzzzzzzzzzzzzzzzzzzzzzzzzzzzzzzzzzzzzzzzzzzzzzzzzzzzzzzzzzzzzzzzzzzzzzzzzzzzzzzzzzzzzzzzzzzzzzzzzz+++++++++++++++++++++++++++++++++...
(PID.TID 0000.0001) //      3 +...+++++++++++++++++++++++++++++++++++++++++++++++++zzzzzzzzzzzzzzzzzzzzzzzzzzzzzzzzzzzzzzzzzzzzzzzzzzzzzzzzzzzzzzzzzzzzzzzzzzzzzzzzzzzzzzzzzzzzzzzzzzzzzzzzzzzzzzzzzzzzzzzzzzzzzzzzzzzzzzzzzzzzzzzzzzz+++++++++++++++++++++++++++++++++++++++++++++++++...
(PID.TID 0000.0001) //      2 +...+++++++++++++++++++++++++++++++++++++++++++++++++++++++++++++++++++++++++++++++++++++++++++++++++++++++++++++++++++++++++++++++++++++++++++++++++++++++++++++++++++++++++++++++++++++++++++++++++++++++++++++++++++++++++++++++++++++++++++++++++++++...
(PID.TID 0000.0001) //      1 ............................................................................................................................................................................................................................................................
(PID.TID 0000.0001) //      0 ............................................................................................................................................................................................................................................................
(PID.TID 0000.0001) //     -1 +...+++++++++++++++++++++++++++++++++++++++++++++++++++++++++++++++++++++++++++++++++++++++++++++++++++++++++++++++++++++++++++++++++++++++++++++++++++++++++++++++++++++++++++++++++++++++++++++++++++++++++++++++++++++++++++++++++++++++++++++++++++++...
(PID.TID 0000.0001) // =======================================================
(PID.TID 0000.0001) // END OF FIELD                                          =
(PID.TID 0000.0001) // =======================================================
(PID.TID 0000.0001) 
(PID.TID 0000.0001) // =======================================================
(PID.TID 0000.0001) // Field hFacS at iteration          0
(PID.TID 0000.0001) // CMIN =          9.000040039062500E-01
(PID.TID 0000.0001) // CMAX =          9.999398437500000E-01
(PID.TID 0000.0001) // CINT =          3.701327401620370E-03
(PID.TID 0000.0001) // SYMBOLS (CMIN->CMAX): -abcdefghijklmnopqrstuvwxyz+
(PID.TID 0000.0001) //                  0.0: .
(PID.TID 0000.0001) // RANGE I (Lo:Hi:Step):(    -1:   250:     1)
(PID.TID 0000.0001) // RANGE J (Lo:Hi:Step):(   250:    -1:    -1)
(PID.TID 0000.0001) // RANGE K (Lo:Hi:Step):(   1:   1:   1)
(PID.TID 0000.0001) // =======================================================
(PID.TID 0000.0001) K =   1
(PID.TID 0000.0001) //                I=8       I=18      I=28      I=38      I=48      I=58      I=68      I=78      I=88      I=98      I=108     I=118     I=128     I=138     I=148     I=158     I=168     I=178     I=188     I=198     I=208     I=218     I=228     I=238     I=248
(PID.TID 0000.0001) // |--J--|101234567|901234567|901234567|901234567|901234567|901234567|901234567|901234567|901234567|901234567|901234567|901234567|901234567|901234567|901234567|901234567|901234567|901234567|901234567|901234567|901234567|901234567|901234567|901234567|901234567|90
(PID.TID 0000.0001) //    250 ............................................................................................................................................................................................................................................................
(PID.TID 0000.0001) //    249 ............................................................................................................................................................................................................................................................
(PID.TID 0000.0001) //    248 ............................................................................................................................................................................................................................................................
(PID.TID 0000.0001) //    247 +..++++++++++++++++++++++++++++++++++++++++++++++++++zzzzzzzzzzzzzzzzzzzzzzzzzzzzzzzzzzzzzzzzzzzzzzzzzzzzzzzzzzzzzzzzzzzzzzzzzzzzzzzzzzzzzzzzzzzzzzzzzzzzzzzzzzzzzzzzzzzzzzzzzzzzzzzzzzzzzzzzzzzzzzzzzz++++++++++++++++++++++++++++++++++++++++++++++++++..+
(PID.TID 0000.0001) //    246 +..++++++++++++++++++++++++++++++++++zzzzzzzzzzzzzzzzzzzzzzzzzzzzzzzzzzzzzzzzzzzzzzzzzzzzzzzzzzzzzzzzzzzzzzzzzzzzzzzzzzzzzzzzzzzzzzzzzzzzzzzzzzzzzzzzzzzzzzzzzzzzzzzzzzzzzzzzzzzzzzzzzzzzzzzzzzzzzzzzzzzzzzzzzzzzzzzzzz++++++++++++++++++++++++++++++++++..+
(PID.TID 0000.0001) //    245 +..++++++++++++++++++++++++++zzzzzzzzzzzzzzzzzzzzzzzzzzzzzzzzzzzzzzzzzzzzzzzzzzzzzzzzzzzzzzzzzzzzzzzzzzzzzzzzzzzyyyyyyyyyyyyyyyyyyyyyyyyyyyyzzzzzzzzzzzzzzzzzzzzzzzzzzzzzzzzzzzzzzzzzzzzzzzzzzzzzzzzzzzzzzzzzzzzzzzzzzzzzzzzzzz++++++++++++++++++++++++++..+
(PID.TID 0000.0001) //    244 +..+++++++++++++++++++++zzzzzzzzzzzzzzzzzzzzzzzzzzzzzzzzzzzzzzzzzzzzzzzzzzzzyyyyyyyyyyyyyyyyyyyyyyyyyyyyyyyyyyyyyyyyyyyyyyyyyyyyyyyyyyyyyyyyyyyyyyyyyyyyyyyyyyyyyyyyyyyyyyyyyyyyzzzzzzzzzzzzzzzzzzzzzzzzzzzzzzzzzzzzzzzzzzzzzzzzzzzz+++++++++++++++++++++..+
(PID.TID 0000.0001) //    243 +..++++++++++++++++++zzzzzzzzzzzzzzzzzzzzzzzzzzzzzzzzzzzzzzzzyyyyyyyyyyyyyyyyyyyyyyyyyyyyyyyyyyyyyyyyyyyyyyyyyyyyyyyyyyyyyyyyyyyyyyyyyyyyyyyyyyyyyyyyyyyyyyyyyyyyyyyyyyyyyyyyyyyyyyyyyyyyyyyyyyzzzzzzzzzzzzzzzzzzzzzzzzzzzzzzzzzzzzzzzz++++++++++++++++++..+
(PID.TID 0000.0001) //    242 +..+++++++++++++++zzzzzzzzzzzzzzzzzzzzzzzzzzzzzzzzzzyyyyyyyyyyyyyyyyyyyyyyyyyyyyyyyyyyyyyyyyyyyyyyyyyyyyyyyyyyyxxxxxxxxxxxxxxxxxxxxxxxxxxxxxxyyyyyyyyyyyyyyyyyyyyyyyyyyyyyyyyyyyyyyyyyyyyyyyyyyyyyyyyyyyzzzzzzzzzzzzzzzzzzzzzzzzzzzzzzzzzz+++++++++++++++..+
(PID.TID 0000.0001) //    241 +..+++++++++++++zzzzzzzzzzzzzzzzzzzzzzzzzzzzzyyyyyyyyyyyyyyyyyyyyyyyyyyyyyyyyyyyyyyyyxxxxxxxxxxxxxxxxxxxxxxxxxxxxxxxxxxxxxxxxxxxxxxxxxxxxxxxxxxxxxxxxxxxxxxxxxxxxxxxxxxyyyyyyyyyyyyyyyyyyyyyyyyyyyyyyyyyyyyyyyyzzzzzzzzzzzzzzzzzzzzzzzzzzzzz+++++++++++++..+
(PID.TID 0000.0001) //    240 +..++++++++++++zzzzzzzzzzzzzzzzzzzzzzzzzyyyyyyyyyyyyyyyyyyyyyyyyyyyyyyyyxxxxxxxxxxxxxxxxxxxxxxxxxxxxxxxxxxxxxxxxxxxxxxxxxxxxxxxxxxxxxxxxxxxxxxxxxxxxxxxxxxxxxxxxxxxxxxxxxxxxxxxxxxxxyyyyyyyyyyyyyyyyyyyyyyyyyyyyyyyyzzzzzzzzzzzzzzzzzzzzzzzzz++++++++++++..+
(PID.TID 0000.0001) //    239 +..++++++++++zzzzzzzzzzzzzzzzzzzzzzzyyyyyyyyyyyyyyyyyyyyyyyyyyyxxxxxxxxxxxxxxxxxxxxxxxxxxxxxxxxxxxxxxxxxxxxxxxxwwwwwwwwwwwwwwwwwwwwwwwwwwwwwwxxxxxxxxxxxxxxxxxxxxxxxxxxxxxxxxxxxxxxxxxxxxxxxxyyyyyyyyyyyyyyyyyyyyyyyyyyyzzzzzzzzzzzzzzzzzzzzzzz++++++++++..+
(PID.TID 0000.0001) //    238 +..+++++++++zzzzzzzzzzzzzzzzzzzzzyyyyyyyyyyyyyyyyyyyyyyyyxxxxxxxxxxxxxxxxxxxxxxxxxxxxxxxxxwwwwwwwwwwwwwwwwwwwwwwwwwwwwwwwwwwwwwwwwwwwwwwwwwwwwwwwwwwwwwwwwwwwwwwwwxxxxxxxxxxxxxxxxxxxxxxxxxxxxxxxxxyyyyyyyyyyyyyyyyyyyyyyyyzzzzzzzzzzzzzzzzzzzzz+++++++++..+
(PID.TID 0000.0001) //    237 +..+++++++++zzzzzzzzzzzzzzzzzzzyyyyyyyyyyyyyyyyyyyyyxxxxxxxxxxxxxxxxxxxxxxxxxxxwwwwwwwwwwwwwwwwwwwwwwwwwwwwwwwwwwwwwwwwwwwwwwwwwwwwwwwwwwwwwwwwwwwwwwwwwwwwwwwwwwwwwwwwwwwwwwxxxxxxxxxxxxxxxxxxxxxxxxxxxyyyyyyyyyyyyyyyyyyyyyzzzzzzzzzzzzzzzzzzz+++++++++..+
(PID.TID 0000.0001) //    236 +..++++++++zzzzzzzzzzzzzzzzzzyyyyyyyyyyyyyyyyyyyxxxxxxxxxxxxxxxxxxxxxxxwwwwwwwwwwwwwwwwwwwwwwwwwwwwwwwwwwwwwwwwvvvvvvvvvvvvvvvvvvvvvvvvvvvvvvwwwwwwwwwwwwwwwwwwwwwwwwwwwwwwwwwwwwwwwwxxxxxxxxxxxxxxxxxxxxxxxyyyyyyyyyyyyyyyyyyyzzzzzzzzzzzzzzzzzz++++++++..+
(PID.TID 0000.0001) //    235 +..+++++++zzzzzzzzzzzzzzzzzyyyyyyyyyyyyyyyyyxxxxxxxxxxxxxxxxxxxxxwwwwwwwwwwwwwwwwwwwwwwwwwwwwvvvvvvvvvvvvvvvvvvvvvvvvvvvvvvvvvvvvvvvvvvvvvvvvvvvvvvvvvvvvvvvvvvwwwwwwwwwwwwwwwwwwwwwwwwwwwwxxxxxxxxxxxxxxxxxxxxxyyyyyyyyyyyyyyyyyzzzzzzzzzzzzzzzzz+++++++..+
(PID.TID 0000.0001) //    234 +..+++++++zzzzzzzzzzzzzzzyyyyyyyyyyyyyyyyxxxxxxxxxxxxxxxxxxxwwwwwwwwwwwwwwwwwwwwwwwvvvvvvvvvvvvvvvvvvvvvvvvvvvvvvvvvvvvvvvvvvvvvvvvvvvvvvvvvvvvvvvvvvvvvvvvvvvvvvvvvvvvvvwwwwwwwwwwwwwwwwwwwwwwwxxxxxxxxxxxxxxxxxxxyyyyyyyyyyyyyyyyzzzzzzzzzzzzzzz+++++++..+
(PID.TID 0000.0001) //    233 +..++++++zzzzzzzzzzzzzzzyyyyyyyyyyyyyyyxxxxxxxxxxxxxxxxxwwwwwwwwwwwwwwwwwwwwvvvvvvvvvvvvvvvvvvvvvvvvvvvvvvvvvvvvuuuuuuuuuuuuuuuuuuuuuuuuuuuuvvvvvvvvvvvvvvvvvvvvvvvvvvvvvvvvvvvvwwwwwwwwwwwwwwwwwwwwxxxxxxxxxxxxxxxxxyyyyyyyyyyyyyyyzzzzzzzzzzzzzzz++++++..+
(PID.TID 0000.0001) //    232 +..++++++zzzzzzzzzzzzzyyyyyyyyyyyyyyyxxxxxxxxxxxxxxxwwwwwwwwwwwwwwwwwwvvvvvvvvvvvvvvvvvvvvvvvvvvuuuuuuuuuuuuuuuuuuuuuuuuuuuuuuuuuuuuuuuuuuuuuuuuuuuuuuuuuuuuvvvvvvvvvvvvvvvvvvvvvvvvvvwwwwwwwwwwwwwwwwwwxxxxxxxxxxxxxxxyyyyyyyyyyyyyyyzzzzzzzzzzzzz++++++..+
(PID.TID 0000.0001) //    231 +..++++++zzzzzzzzzzzzyyyyyyyyyyyyyyxxxxxxxxxxxxxxwwwwwwwwwwwwwwwwvvvvvvvvvvvvvvvvvvvvvvuuuuuuuuuuuuuuuuuuuuuuuuuuuuuuuuuuuuuuuuuuuuuuuuuuuuuuuuuuuuuuuuuuuuuuuuuuuuuuvvvvvvvvvvvvvvvvvvvvvvwwwwwwwwwwwwwwwwxxxxxxxxxxxxxxyyyyyyyyyyyyyyzzzzzzzzzzzz++++++..+
(PID.TID 0000.0001) //    230 +..+++++zzzzzzzzzzzzyyyyyyyyyyyyyxxxxxxxxxxxxxwwwwwwwwwwwwwwwvvvvvvvvvvvvvvvvvvvuuuuuuuuuuuuuuuuuuuuuuuuuuuuuuuuuttttttttttttttttttttttttttuuuuuuuuuuuuuuuuuuuuuuuuuuuuuuuuuvvvvvvvvvvvvvvvvvvvwwwwwwwwwwwwwwwxxxxxxxxxxxxxyyyyyyyyyyyyyzzzzzzzzzzzz+++++..+
(PID.TID 0000.0001) //    229 +..+++++zzzzzzzzzzzyyyyyyyyyyyyxxxxxxxxxxxxxwwwwwwwwwwwwwwvvvvvvvvvvvvvvvvvuuuuuuuuuuuuuuuuuuuuuuuttttttttttttttttttttttttttttttttttttttttttttttttttttttttuuuuuuuuuuuuuuuuuuuuuuuvvvvvvvvvvvvvvvvvwwwwwwwwwwwwwwxxxxxxxxxxxxxyyyyyyyyyyyyzzzzzzzzzzz+++++..+
(PID.TID 0000.0001) //    228 +..+++++zzzzzzzzzzzyyyyyyyyyyyxxxxxxxxxxxxwwwwwwwwwwwwwvvvvvvvvvvvvvvvuuuuuuuuuuuuuuuuuuuuttttttttttttttttttttttttttttttttttttttttttttttttttttttttttttttttttttttttuuuuuuuuuuuuuuuuuuuuvvvvvvvvvvvvvvvwwwwwwwwwwwwwxxxxxxxxxxxxyyyyyyyyyyyzzzzzzzzzzz+++++..+
(PID.TID 0000.0001) //    227 +..++++zzzzzzzzzzzyyyyyyyyyyyxxxxxxxxxxxwwwwwwwwwwwwvvvvvvvvvvvvvvuuuuuuuuuuuuuuuuutttttttttttttttttttttttttttttttsssssssssssssssssssssssstttttttttttttttttttttttttttttttuuuuuuuuuuuuuuuuuvvvvvvvvvvvvvvwwwwwwwwwwwwxxxxxxxxxxxyyyyyyyyyyyzzzzzzzzzzz++++..+
(PID.TID 0000.0001) //    226 +..++++zzzzzzzzzzyyyyyyyyyyyxxxxxxxxxxwwwwwwwwwwwwvvvvvvvvvvvvvuuuuuuuuuuuuuuutttttttttttttttttttttttsssssssssssssssssssssssssssssssssssssssssssssssssstttttttttttttttttttttttuuuuuuuuuuuuuuuvvvvvvvvvvvvvwwwwwwwwwwwwxxxxxxxxxxyyyyyyyyyyyzzzzzzzzzz++++..+
(PID.TID 0000.0001) //    225 +..++++zzzzzzzzzzyyyyyyyyyxxxxxxxxxxxwwwwwwwwwwwvvvvvvvvvvvvuuuuuuuuuuuuuuttttttttttttttttttssssssssssssssssssssssssssssssssssssssssssssssssssssssssssssssssssssttttttttttttttttttuuuuuuuuuuuuuuvvvvvvvvvvvvwwwwwwwwwwwxxxxxxxxxxxyyyyyyyyyzzzzzzzzzz++++..+
(PID.TID 0000.0001) //    224 +..++++zzzzzzzzzyyyyyyyyyyxxxxxxxxxwwwwwwwwwwwvvvvvvvvvvvuuuuuuuuuuuuuttttttttttttttttsssssssssssssssssssssssssssssssrrrrrrrrrrrrrrrrrrsssssssssssssssssssssssssssssssttttttttttttttttuuuuuuuuuuuuuvvvvvvvvvvvwwwwwwwwwwwxxxxxxxxxyyyyyyyyyyzzzzzzzzz++++..+
(PID.TID 0000.0001) //    223 +..++++zzzzzzzzzyyyyyyyyyxxxxxxxxxwwwwwwwwwwvvvvvvvvvvvuuuuuuuuuuuuttttttttttttttssssssssssssssssssssssrrrrrrrrrrrrrrrrrrrrrrrrrrrrrrrrrrrrrrrrrrrrrrssssssssssssssssssssssttttttttttttttuuuuuuuuuuuuvvvvvvvvvvvwwwwwwwwwwxxxxxxxxxyyyyyyyyyzzzzzzzzz++++..+
(PID.TID 0000.0001) //    222 +..+++zzzzzzzzzyyyyyyyyyxxxxxxxxxwwwwwwwwwvvvvvvvvvvvuuuuuuuuuuutttttttttttttssssssssssssssssssrrrrrrrrrrrrrrrrrrrrrrrrrrrrrrrrrrrrrrrrrrrrrrrrrrrrrrrrrrrrrrsssssssssssssssssstttttttttttttuuuuuuuuuuuvvvvvvvvvvvwwwwwwwwwxxxxxxxxxyyyyyyyyyzzzzzzzzz+++..+
(PID.TID 0000.0001) //    221 +..+++zzzzzzzzzyyyyyyyyxxxxxxxxxwwwwwwwwwvvvvvvvvvvuuuuuuuuuutttttttttttttsssssssssssssssrrrrrrrrrrrrrrrrrrrrrrrrrrrrrrrqqqqqqqqqqqqrrrrrrrrrrrrrrrrrrrrrrrrrrrrrrrssssssssssssssstttttttttttttuuuuuuuuuuvvvvvvvvvvwwwwwwwwwxxxxxxxxxyyyyyyyyzzzzzzzzz+++..+
(PID.TID 0000.0001) //    220 +..+++zzzzzzzzyyyyyyyyxxxxxxxxxwwwwwwwwwvvvvvvvvvuuuuuuuuuutttttttttttssssssssssssssrrrrrrrrrrrrrrrrrrrrrqqqqqqqqqqqqqqqqqqqqqqqqqqqqqqqqqqqqqqqqqqrrrrrrrrrrrrrrrrrrrrrsssssssssssssstttttttttttuuuuuuuuuuvvvvvvvvvwwwwwwwwwxxxxxxxxxyyyyyyyyzzzzzzzz+++..+
(PID.TID 0000.0001) //    219 +..+++zzzzzzzzyyyyyyyyxxxxxxxxwwwwwwwwvvvvvvvvvuuuuuuuuuutttttttttttssssssssssssrrrrrrrrrrrrrrrrrqqqqqqqqqqqqqqqqqqqqqqqqqqqqqqqqqqqqqqqqqqqqqqqqqqqqqqqqqqrrrrrrrrrrrrrrrrrsssssssssssstttttttttttuuuuuuuuuuvvvvvvvvvwwwwwwwwxxxxxxxxyyyyyyyyzzzzzzzz+++..+
(PID.TID 0000.0001) //    218 +..+++zzzzzzzyyyyyyyyxxxxxxxxwwwwwwwwvvvvvvvvvuuuuuuuuuttttttttttssssssssssssrrrrrrrrrrrrrrrqqqqqqqqqqqqqqqqqqqqqqqqqqqqqqqqqqqqqqqqqqqqqqqqqqqqqqqqqqqqqqqqqqqqrrrrrrrrrrrrrrrssssssssssssttttttttttuuuuuuuuuvvvvvvvvvwwwwwwwwxxxxxxxxyyyyyyyyzzzzzzz+++..+
(PID.TID 0000.0001) //    217 +..+++zzzzzzzyyyyyyyyxxxxxxxwwwwwwwwvvvvvvvvuuuuuuuuuttttttttttsssssssssssrrrrrrrrrrrrrqqqqqqqqqqqqqqqqqqqqqppppppppppppppppppppppppppppppppppppqqqqqqqqqqqqqqqqqqqqqrrrrrrrrrrrrrsssssssssssttttttttttuuuuuuuuuvvvvvvvvwwwwwwwwxxxxxxxyyyyyyyyzzzzzzz+++..+
(PID.TID 0000.0001) //    216 +..+++zzzzzzzyyyyyyyxxxxxxxwwwwwwwwvvvvvvvvuuuuuuuuttttttttttssssssssssrrrrrrrrrrrrqqqqqqqqqqqqqqqqqppppppppppppppppppppppppppppppppppppppppppppppppppppqqqqqqqqqqqqqqqqqrrrrrrrrrrrrssssssssssttttttttttuuuuuuuuvvvvvvvvwwwwwwwwxxxxxxxyyyyyyyzzzzzzz+++..+
(PID.TID 0000.0001) //    215 +..+++zzzzzzyyyyyyyyxxxxxxxwwwwwwwvvvvvvvvuuuuuuuutttttttttsssssssssrrrrrrrrrrrrqqqqqqqqqqqqqqppppppppppppppppppppppppppppppppppppppppppppppppppppppppppppppppqqqqqqqqqqqqqqrrrrrrrrrrrrssssssssstttttttttuuuuuuuuvvvvvvvvwwwwwwwxxxxxxxyyyyyyyyzzzzzz+++..+
(PID.TID 0000.0001) //    214 +..++zzzzzzzyyyyyyyxxxxxxxwwwwwwwvvvvvvvvuuuuuuutttttttttsssssssssrrrrrrrrrrrqqqqqqqqqqqqqppppppppppppppppppppooooooooooooooooooooooooooooooooppppppppppppppppppppqqqqqqqqqqqqqrrrrrrrrrrrssssssssstttttttttuuuuuuuvvvvvvvvwwwwwwwxxxxxxxyyyyyyyzzzzzzz++..+
(PID.TID 0000.0001) //    213 +..++zzzzzzzyyyyyyyxxxxxxwwwwwwwvvvvvvvvuuuuuuuttttttttsssssssssrrrrrrrrrrqqqqqqqqqqqqppppppppppppppppooooooooooooooooooooooooooooooooooooooooooooooooppppppppppppppppqqqqqqqqqqqqrrrrrrrrrrsssssssssttttttttuuuuuuuvvvvvvvvwwwwwwwxxxxxxyyyyyyyzzzzzzz++..+
(PID.TID 0000.0001) //    212 +..++zzzzzzzyyyyyyxxxxxxxwwwwwwwvvvvvvvuuuuuuuttttttttssssssssrrrrrrrrrqqqqqqqqqqqpppppppppppppppoooooooooooooooooooooooooooooooooooooooooooooooooooooooooopppppppppppppppqqqqqqqqqqqrrrrrrrrrssssssssttttttttuuuuuuuvvvvvvvwwwwwwwxxxxxxxyyyyyyzzzzzzz++..+
(PID.TID 0000.0001) //    211 +..++zzzzzzyyyyyyyxxxxxxwwwwwwwvvvvvvvuuuuuuutttttttssssssssrrrrrrrrrqqqqqqqqqqpppppppppppppoooooooooooooooooooooonnnnnnnnnnnnnnnnnnnnnnnnoooooooooooooooooooooopppppppppppppqqqqqqqqqqrrrrrrrrrsssssssstttttttuuuuuuuvvvvvvvwwwwwwwxxxxxxyyyyyyyzzzzzz++..+
(PID.TID 0000.0001) //    210 +..++zzzzzzyyyyyyxxxxxxxwwwwwwvvvvvvvuuuuuuutttttttssssssssrrrrrrrrqqqqqqqqqqpppppppppppooooooooooooooooonnnnnnnnnnnnnnnnnnnnnnnnnnnnnnnnnnnnnnnnnnooooooooooooooooopppppppppppqqqqqqqqqqrrrrrrrrsssssssstttttttuuuuuuuvvvvvvvwwwwwwxxxxxxxyyyyyyzzzzzz++..+
(PID.TID 0000.0001) //    209 +..++zzzzzzyyyyyyxxxxxxwwwwwwvvvvvvvuuuuuuutttttttsssssssrrrrrrrrqqqqqqqqqpppppppppppoooooooooooooonnnnnnnnnnnnnnnnnnnnnnnnnnnnnnnnnnnnnnnnnnnnnnnnnnnnnnoooooooooooooopppppppppppqqqqqqqqqrrrrrrrrssssssstttttttuuuuuuuvvvvvvvwwwwwwxxxxxxyyyyyyzzzzzz++..+
(PID.TID 0000.0001) //    208 +..++zzzzzzyyyyyyxxxxxxwwwwwwvvvvvvuuuuuuuttttttssssssssrrrrrrrqqqqqqqqqppppppppppooooooooooooonnnnnnnnnnnnnnnnnnnnnnnnnmmmmmmmmmmmmnnnnnnnnnnnnnnnnnnnnnnnnnoooooooooooooppppppppppqqqqqqqqqrrrrrrrssssssssttttttuuuuuuuvvvvvvwwwwwwxxxxxxyyyyyyzzzzzz++..+
(PID.TID 0000.0001) //    207 +..++zzzzzzyyyyyxxxxxxwwwwwwvvvvvvuuuuuuuttttttsssssssrrrrrrrrqqqqqqqqpppppppppoooooooooooonnnnnnnnnnnnnnnnnnmmmmmmmmmmmmmmmmmmmmmmmmmmmmmmmmmmnnnnnnnnnnnnnnnnnnoooooooooooopppppppppqqqqqqqqrrrrrrrrsssssssttttttuuuuuuuvvvvvvwwwwwwxxxxxxyyyyyzzzzzz++..+
(PID.TID 0000.0001) //    206 +..++zzzzzyyyyyyxxxxxxwwwwwwvvvvvvuuuuuuttttttsssssssrrrrrrrqqqqqqqqpppppppppooooooooooonnnnnnnnnnnnnnmmmmmmmmmmmmmmmmmmmmmmmmmmmmmmmmmmmmmmmmmmmmmmmmnnnnnnnnnnnnnnooooooooooopppppppppqqqqqqqqrrrrrrrsssssssttttttuuuuuuvvvvvvwwwwwwxxxxxxyyyyyyzzzzz++..+
(PID.TID 0000.0001) //    205 +..++zzzzzyyyyyyxxxxxwwwwwwvvvvvvuuuuuuttttttsssssssrrrrrrrqqqqqqqpppppppppoooooooooonnnnnnnnnnnnnmmmmmmmmmmmmmmmmmmmmmmmmmmmmmmmmmmmmmmmmmmmmmmmmmmmmmmmmnnnnnnnnnnnnnoooooooooopppppppppqqqqqqqrrrrrrrsssssssttttttuuuuuuvvvvvvwwwwwwxxxxxyyyyyyzzzzz++..+
(PID.TID 0000.0001) //    204 +..++zzzzzyyyyyyxxxxxwwwwwwvvvvvuuuuuuttttttsssssssrrrrrrqqqqqqqqppppppppooooooooonnnnnnnnnnnnmmmmmmmmmmmmmmmmmmmllllllllllllllllllllllllllmmmmmmmmmmmmmmmmmmmnnnnnnnnnnnnoooooooooppppppppqqqqqqqqrrrrrrsssssssttttttuuuuuuvvvvvwwwwwwxxxxxyyyyyyzzzzz++..+
(PID.TID 0000.0001) //    203 +..++zzzzzyyyyyxxxxxxwwwwwvvvvvvuuuuuttttttsssssssrrrrrrqqqqqqqppppppppooooooooonnnnnnnnnnmmmmmmmmmmmmmmmmllllllllllllllllllllllllllllllllllllllllmmmmmmmmmmmmmmmmnnnnnnnnnnoooooooooppppppppqqqqqqqrrrrrrsssssssttttttuuuuuvvvvvvwwwwwxxxxxxyyyyyzzzzz++..+
(PID.TID 0000.0001) //    202 +..++zzzzzyyyyyxxxxxwwwwwwvvvvvuuuuuuttttttssssssrrrrrrqqqqqqqpppppppooooooooonnnnnnnnnnmmmmmmmmmmmmmllllllllllllllllllllllllllllllllllllllllllllllllllmmmmmmmmmmmmmnnnnnnnnnnooooooooopppppppqqqqqqqrrrrrrssssssttttttuuuuuuvvvvvwwwwwwxxxxxyyyyyzzzzz++..+
(PID.TID 0000.0001) //    201 +..++zzzzzyyyyyxxxxxwwwwwvvvvvvuuuuuttttttssssssrrrrrrqqqqqqqpppppppoooooooonnnnnnnnnmmmmmmmmmmmmllllllllllllllllllllllkkkkkkkkkkkkkkllllllllllllllllllllllmmmmmmmmmmmmnnnnnnnnnoooooooopppppppqqqqqqqrrrrrrssssssttttttuuuuuvvvvvvwwwwwxxxxxyyyyyzzzzz++..+
(PID.TID 0000.0001) //    200 +..++zzzzzyyyyyxxxxxwwwwwvvvvvuuuuuttttttssssssrrrrrrqqqqqqpppppppoooooooonnnnnnnnnmmmmmmmmmmlllllllllllllllllkkkkkkkkkkkkkkkkkkkkkkkkkkkkkkkklllllllllllllllllmmmmmmmmmmnnnnnnnnnoooooooopppppppqqqqqqrrrrrrssssssttttttuuuuuvvvvvwwwwwxxxxxyyyyyzzzzz++..+
(PID.TID 0000.0001) //    199 +..++zzzzyyyyyxxxxxwwwwwvvvvvvuuuuutttttssssssrrrrrrqqqqqqpppppppooooooonnnnnnnnmmmmmmmmmmllllllllllllllkkkkkkkkkkkkkkkkkkkkkkkkkkkkkkkkkkkkkkkkkkkkllllllllllllllmmmmmmmmmmnnnnnnnnooooooopppppppqqqqqqrrrrrrsssssstttttuuuuuvvvvvvwwwwwxxxxxyyyyyzzzz++..+
(PID.TID 0000.0001) //    198 +..+zzzzzyyyyyxxxxxwwwwwvvvvvuuuuuttttttsssssrrrrrrqqqqqqppppppoooooooonnnnnnnmmmmmmmmmmllllllllllllkkkkkkkkkkkkkkkkkkkkkkkkkkkkkkkkkkkkkkkkkkkkkkkkkkkkllllllllllllmmmmmmmmmmnnnnnnnooooooooppppppqqqqqqrrrrrrsssssttttttuuuuuvvvvvwwwwwxxxxxyyyyyzzzzz+..+
(PID.TID 0000.0001) //    197 +..+zzzzzyyyyyxxxxxwwwwwvvvvvuuuuutttttsssssrrrrrrqqqqqqppppppooooooonnnnnnnnmmmmmmmmlllllllllllkkkkkkkkkkkkkkkkkkkjjjjjjjjjjjjjjjjjjjjjjkkkkkkkkkkkkkkkkkkklllllllllllmmmmmmmmnnnnnnnnoooooooppppppqqqqqqrrrrrrssssstttttuuuuuvvvvvwwwwwxxxxxyyyyyzzzzz+..+
(PID.TID 0000.0001) //    196 +..+zzzzzyyyyyxxxxxwwwwvvvvvuuuuutttttssssssrrrrrqqqqqqppppppooooooonnnnnnnmmmmmmmmllllllllllkkkkkkkkkkkkkkkjjjjjjjjjjjjjjjjjjjjjjjjjjjjjjjjjjjjkkkkkkkkkkkkkkkllllllllllmmmmmmmmnnnnnnnoooooooppppppqqqqqqrrrrrsssssstttttuuuuuvvvvvwwwwxxxxxyyyyyzzzzz+..+
(PID.TID 0000.0001) //    195 +..+zzzzzyyyyyxxxxwwwwwvvvvvuuuuutttttsssssrrrrrqqqqqqppppppoooooonnnnnnnmmmmmmmmllllllllllkkkkkkkkkkkkkjjjjjjjjjjjjjjjjjjjjjjjjjjjjjjjjjjjjjjjjjjjjkkkkkkkkkkkkkllllllllllmmmmmmmmnnnnnnnooooooppppppqqqqqqrrrrrssssstttttuuuuuvvvvvwwwwwxxxxyyyyyzzzzz+..+
(PID.TID 0000.0001) //    194 +..+zzzzzyyyyxxxxxwwwwwvvvvuuuuutttttsssssrrrrrqqqqqqppppppoooooonnnnnnnmmmmmmmlllllllllkkkkkkkkkkkkjjjjjjjjjjjjjjjjjjjjjjjjjjjjjjjjjjjjjjjjjjjjjjjjjjjjkkkkkkkkkkkklllllllllmmmmmmmnnnnnnnooooooppppppqqqqqqrrrrrssssstttttuuuuuvvvvwwwwwxxxxxyyyyzzzzz+..+
(PID.TID 0000.0001) //    193 +..+zzzzzyyyyxxxxxwwwwvvvvvuuuuutttttsssssrrrrrqqqqqppppppoooooonnnnnnmmmmmmmmllllllllkkkkkkkkkkkjjjjjjjjjjjjjjjjjiiiiiiiiiiiiiiiiiiiiiiiijjjjjjjjjjjjjjjjjkkkkkkkkkkkllllllllmmmmmmmmnnnnnnooooooppppppqqqqqrrrrrssssstttttuuuuuvvvvvwwwwxxxxxyyyyzzzzz+..+
(PID.TID 0000.0001) //    192 +..+zzzzzyyyyxxxxxwwwwvvvvvuuuutttttsssssrrrrrqqqqqppppppoooooonnnnnnmmmmmmmllllllllkkkkkkkkkkjjjjjjjjjjjjjjiiiiiiiiiiiiiiiiiiiiiiiiiiiiiiiiiiiijjjjjjjjjjjjjjkkkkkkkkkkllllllllmmmmmmmnnnnnnooooooppppppqqqqqrrrrrssssstttttuuuuvvvvvwwwwxxxxxyyyyzzzzz+..+
(PID.TID 0000.0001) //    191 +..+zzzzzyyyyxxxxwwwwwvvvvuuuuutttttssssrrrrrqqqqqqpppppoooooonnnnnnmmmmmmmlllllllkkkkkkkkkjjjjjjjjjjjjjiiiiiiiiiiiiiiiiiiiiiiiiiiiiiiiiiiiiiiiiiiiijjjjjjjjjjjjjkkkkkkkkklllllllmmmmmmmnnnnnnoooooopppppqqqqqqrrrrrsssstttttuuuuuvvvvwwwwwxxxxyyyyzzzzz+..+
(PID.TID 0000.0001) //    190 +..+zzzzyyyyyxxxxwwwwvvvvvuuuutttttsssssrrrrrqqqqqpppppoooooonnnnnnmmmmmmllllllllkkkkkkkkjjjjjjjjjjjiiiiiiiiiiiiiiiiiiiiiiiiiiiiiiiiiiiiiiiiiiiiiiiiiiiijjjjjjjjjjjkkkkkkkkllllllllmmmmmmnnnnnnoooooopppppqqqqqrrrrrssssstttttuuuuvvvvvwwwwxxxxyyyyyzzzz+..+
(PID.TID 0000.0001) //    189 +..+zzzzyyyyyxxxxwwwwvvvvvuuuutttttssssrrrrrqqqqqpppppoooooonnnnnnmmmmmmlllllllkkkkkkkkjjjjjjjjjjiiiiiiiiiiiiiiiiihhhhhhhhhhhhhhhhhhhhhhhhiiiiiiiiiiiiiiiiijjjjjjjjjjkkkkkkkklllllllmmmmmmnnnnnnoooooopppppqqqqqrrrrrsssstttttuuuuvvvvvwwwwxxxxyyyyyzzzz+..+
(PID.TID 0000.0001) //    188 +..+zzzzyyyyxxxxxwwwwvvvvuuuuuttttsssssrrrrqqqqqpppppoooooonnnnnnmmmmmmlllllllkkkkkkkjjjjjjjjjjiiiiiiiiiiiiihhhhhhhhhhhhhhhhhhhhhhhhhhhhhhhhhhhhiiiiiiiiiiiiijjjjjjjjjjkkkkkkklllllllmmmmmmnnnnnnoooooopppppqqqqqrrrrsssssttttuuuuuvvvvwwwwxxxxxyyyyzzzz+..+
(PID.TID 0000.0001) //    187 +..+zzzzyyyyxxxxxwwwwvvvvuuuutttttssssrrrrrqqqqqpppppooooonnnnnnmmmmmmllllllkkkkkkkkjjjjjjjjiiiiiiiiiiiiihhhhhhhhhhhhhhhhhhhhhhhhhhhhhhhhhhhhhhhhhhiiiiiiiiiiiiijjjjjjjjkkkkkkkkllllllmmmmmmnnnnnnooooopppppqqqqqrrrrrsssstttttuuuuvvvvwwwwxxxxxyyyyzzzz+..+
(PID.TID 0000.0001) //    186 +..+zzzzyyyyxxxxwwwwvvvvvuuuuttttsssssrrrrqqqqqpppppooooonnnnnnmmmmmlllllllkkkkkkkjjjjjjjjiiiiiiiiiiihhhhhhhhhhhhhhhhhhhhhhhhhhhhhhhhhhhhhhhhhhhhhhhhhhiiiiiiiiiiijjjjjjjjkkkkkkklllllllmmmmmnnnnnnooooopppppqqqqqrrrrsssssttttuuuuvvvvvwwwwxxxxyyyyzzzz+..+
(PID.TID 0000.0001) //    185 +..+zzzzyyyyxxxxwwwwvvvvuuuuuttttssssrrrrrqqqqpppppooooonnnnnnmmmmmlllllllkkkkkkjjjjjjjjiiiiiiiiiiihhhhhhhhhhhhhhhhgggggggggggggggggggggghhhhhhhhhhhhhhhhiiiiiiiiiiijjjjjjjjkkkkkklllllllmmmmmnnnnnnooooopppppqqqqrrrrrssssttttuuuuuvvvvwwwwxxxxyyyyzzzz+..+
(PID.TID 0000.0001) //    184 +..+zzzzyyyyxxxxwwwwvvvvuuuutttttssssrrrrqqqqqpppppooooonnnnnmmmmmllllllkkkkkkkjjjjjjjjiiiiiiiiihhhhhhhhhhhhhhgggggggggggggggggggggggggggggggghhhhhhhhhhhhhhiiiiiiiiijjjjjjjjkkkkkkkllllllmmmmmnnnnnooooopppppqqqqqrrrrsssstttttuuuuvvvvwwwwxxxxyyyyzzzz+..+
(PID.TID 0000.0001) //    183 +..+zzzzyyyyxxxxwwwwvvvvuuuuttttssssrrrrrqqqqpppppooooonnnnnmmmmmllllllkkkkkkkjjjjjjjiiiiiiiiihhhhhhhhhhhhgggggggggggggggggggggggggggggggggggggggghhhhhhhhhhhhiiiiiiiiijjjjjjjkkkkkkkllllllmmmmmnnnnnooooopppppqqqqrrrrrssssttttuuuuvvvvwwwwxxxxyyyyzzzz+..+
(PID.TID 0000.0001) //    182 +..+zzzzyyyyxxxxwwwwvvvvuuuuttttssssrrrrqqqqqppppooooonnnnnmmmmmmlllllkkkkkkkjjjjjjjiiiiiiiihhhhhhhhhhhgggggggggggggggggggggggggggggggggggggggggggggghhhhhhhhhhhiiiiiiiijjjjjjjkkkkkkklllllmmmmmmnnnnnoooooppppqqqqqrrrrssssttttuuuuvvvvwwwwxxxxyyyyzzzz+..+
(PID.TID 0000.0001) //    181 +..+zzzzyyyyxxxxwwwvvvvuuuuttttsssssrrrrqqqqpppppooooonnnnmmmmmmlllllkkkkkkjjjjjjjiiiiiiiihhhhhhhhhhggggggggggggggggggffffffffffffffffgggggggggggggggggghhhhhhhhhhiiiiiiiijjjjjjjkkkkkklllllmmmmmmnnnnooooopppppqqqqrrrrsssssttttuuuuvvvvwwwxxxxyyyyzzzz+..+
(PID.TID 0000.0001) //    180 +..+zzzzyyyyxxxwwwwvvvvuuuuttttssssrrrrqqqqqppppooooonnnnnmmmmmlllllkkkkkkjjjjjjjiiiiiiihhhhhhhhhhggggggggggggggffffffffffffffffffffffffffffgggggggggggggghhhhhhhhhhiiiiiiijjjjjjjkkkkkklllllmmmmmnnnnnoooooppppqqqqqrrrrssssttttuuuuvvvvwwwwxxxyyyyzzzz+..+
(PID.TID 0000.0001) //    179 +..+zzzzyyyxxxxwwwwvvvvuuuuttttssssrrrrqqqqpppppoooonnnnnmmmmmlllllkkkkkkjjjjjjjiiiiiiihhhhhhhhhggggggggggggffffffffffffffffffffffffffffffffffffgggggggggggghhhhhhhhhiiiiiiijjjjjjjkkkkkklllllmmmmmnnnnnoooopppppqqqqrrrrssssttttuuuuvvvvwwwwxxxxyyyzzzz+..+
(PID.TID 0000.0001) //    178 +..+zzzzyyyxxxxwwwwvvvvuuuuttttssssrrrrqqqqppppooooonnnnmmmmmllllllkkkkkjjjjjjiiiiiiihhhhhhhhhgggggggggggffffffffffffffffffffffffffffffffffffffffffggggggggggghhhhhhhhhiiiiiiijjjjjjkkkkkllllllmmmmmnnnnoooooppppqqqqrrrrssssttttuuuuvvvvwwwwxxxxyyyzzzz+..+
(PID.TID 0000.0001) //    177 +..+zzzzyyyxxxxwwwwvvvvuuuttttssssrrrrqqqqpppppoooonnnnnmmmmmlllllkkkkkjjjjjjiiiiiiihhhhhhhhggggggggggffffffffffffffffffffffffffffffffffffffffffffffffgggggggggghhhhhhhhiiiiiiijjjjjjkkkkklllllmmmmmnnnnnoooopppppqqqqrrrrssssttttuuuvvvvwwwwxxxxyyyzzzz+..+
(PID.TID 0000.0001) //    176 +..+zzzzyyyxxxxwwwwvvvuuuuttttssssrrrrqqqqppppooooonnnnmmmmmlllllkkkkkjjjjjjiiiiiiihhhhhhhggggggggggffffffffffffffffeeeeeeeeeeeeeeeeeeeeffffffffffffffffgggggggggghhhhhhhiiiiiiijjjjjjkkkkklllllmmmmmnnnnoooooppppqqqqrrrrssssttttuuuuvvvwwwwxxxxyyyzzzz+..+
(PID.TID 0000.0001) //    175 +..+zzzyyyyxxxxwwwvvvvuuuuttttssssrrrrqqqqppppoooonnnnnmmmmlllllkkkkkkjjjjjiiiiiiihhhhhhhgggggggggffffffffffffffeeeeeeeeeeeeeeeeeeeeeeeeeeeeffffffffffffffggggggggghhhhhhhiiiiiiijjjjjkkkkkklllllmmmmnnnnnooooppppqqqqrrrrssssttttuuuuvvvvwwwxxxxyyyyzzz+..+
(PID.TID 0000.0001) //    174 +..+zzzyyyyxxxxwwwvvvvuuuutttssssrrrrqqqqppppooooonnnnmmmmmlllllkkkkkjjjjjiiiiiiihhhhhhhggggggggffffffffffffeeeeeeeeeeeeeeeeeeeeeeeeeeeeeeeeeeeeffffffffffffgggggggghhhhhhhiiiiiiijjjjjkkkkklllllmmmmmnnnnoooooppppqqqqrrrrsssstttuuuuvvvvwwwxxxxyyyyzzz+..+
(PID.TID 0000.0001) //    173 +..+zzzyyyyxxxxwwwvvvvuuuttttssssrrrrqqqqppppoooonnnnmmmmmlllllkkkkkjjjjjiiiiiihhhhhhhggggggggfffffffffffeeeeeeeeeeeeeeeeeeeeeeeeeeeeeeeeeeeeeeeeeefffffffffffgggggggghhhhhhhiiiiiijjjjjkkkkklllllmmmmmnnnnooooppppqqqqrrrrssssttttuuuvvvvwwwxxxxyyyyzzz+..+
(PID.TID 0000.0001) //    172 +..+zzzyyyyxxxwwwwvvvvuuuttttssssrrrrqqqppppooooonnnnmmmmlllllkkkkkjjjjjjiiiiihhhhhhhggggggggffffffffffeeeeeeeeeeeeeeeeeeeeeeeeeeeeeeeeeeeeeeeeeeeeeeffffffffffgggggggghhhhhhhiiiiijjjjjjkkkkklllllmmmmnnnnoooooppppqqqrrrrssssttttuuuvvvvwwwwxxxyyyyzzz+..+
(PID.TID 0000.0001) //    171 +..+zzzyyyyxxxwwwwvvvuuuuttttsssrrrrqqqqppppoooonnnnmmmmmlllllkkkkjjjjjjiiiiiihhhhhhgggggggffffffffffeeeeeeeeeeeeeeeeddddddddddddddddddeeeeeeeeeeeeeeeeffffffffffggggggghhhhhhiiiiiijjjjjjkkkklllllmmmmmnnnnooooppppqqqqrrrrsssttttuuuuvvvwwwwxxxyyyyzzz+..+
(PID.TID 0000.0001) //    170 +..+zzzyyyyxxxwwwwvvvuuuutttssssrrrrqqqqppppoooonnnnmmmmlllllkkkkkjjjjjiiiiiihhhhhhgggggggfffffffffeeeeeeeeeeeeeeddddddddddddddddddddddddddeeeeeeeeeeeeeefffffffffggggggghhhhhhiiiiiijjjjjkkkkklllllmmmmnnnnooooppppqqqqrrrrsssstttuuuuvvvwwwwxxxyyyyzzz+..+
(PID.TID 0000.0001) //    169 +..+zzzyyyyxxxwwwwvvvuuuutttssssrrrrqqqppppoooonnnnnmmmmllllkkkkkjjjjjiiiiiihhhhhhgggggggffffffffeeeeeeeeeeeeddddddddddddddddddddddddddddddddddeeeeeeeeeeeeffffffffggggggghhhhhhiiiiiijjjjjkkkkkllllmmmmnnnnnooooppppqqqrrrrsssstttuuuuvvvwwwwxxxyyyyzzz+..+
(PID.TID 0000.0001) //    168 +..+zzzyyyyxxxwwwvvvvuuuttttssssrrrqqqqppppoooonnnnmmmmlllllkkkkkjjjjjiiiiihhhhhhgggggggffffffffeeeeeeeeeeeddddddddddddddddddddddddddddddddddddddeeeeeeeeeeeffffffffggggggghhhhhhiiiiijjjjjkkkkklllllmmmmnnnnooooppppqqqqrrrssssttttuuuvvvvwwwxxxyyyyzzz+..+
(PID.TID 0000.0001) //    167 +..+zzzyyyyxxxwwwvvvvuuuttttsssrrrrqqqqppppoooonnnnmmmmllllkkkkkjjjjjiiiiihhhhhhgggggggfffffffeeeeeeeeeeeddddddddddddddddddddddddddddddddddddddddddeeeeeeeeeeefffffffggggggghhhhhhiiiiijjjjjkkkkkllllmmmmnnnnooooppppqqqqrrrrsssttttuuuvvvvwwwxxxyyyyzzz+..+
(PID.TID 0000.0001) //    166 +..+zzzyyyxxxxwwwvvvvuuuttttsssrrrrqqqqpppoooonnnnmmmmlllllkkkkjjjjjiiiiihhhhhhgggggggfffffffeeeeeeeeeeddddddddddddddddddddccccccddddddddddddddddddddeeeeeeeeeefffffffggggggghhhhhhiiiiijjjjjkkkklllllmmmmnnnnoooopppqqqqrrrrsssttttuuuvvvvwwwxxxxyyyzzz+..+
(PID.TID 0000.0001) //    165 +..+zzzyyyxxxxwwwvvvvuuutttssssrrrrqqqppppoooonnnnmmmmllllkkkkkjjjjjiiiiihhhhhgggggggfffffffeeeeeeeeedddddddddddddddccccccccccccccccccccdddddddddddddddeeeeeeeeefffffffggggggghhhhhiiiiijjjjjkkkkkllllmmmmnnnnooooppppqqqrrrrsssstttuuuvvvvwwwxxxxyyyzzz+..+
(PID.TID 0000.0001) //    164 +..+zzzyyyxxxxwwwvvvuuuutttssssrrrqqqqppppoooonnnnmmmmllllkkkkjjjjjiiiiihhhhhhggggggfffffffeeeeeeeedddddddddddddccccccccccccccccccccccccccccdddddddddddddeeeeeeeefffffffgggggghhhhhhiiiiijjjjjkkkkllllmmmmnnnnooooppppqqqqrrrsssstttuuuuvvvwwwxxxxyyyzzz+..+
(PID.TID 0000.0001) //    163 +..+zzzyyyxxxxwwwvvvuuuutttssssrrrqqqqpppoooonnnnmmmmllllkkkkkjjjjiiiiihhhhhhggggggfffffffeeeeeeeeddddddddddddccccccccccccccccccccccccccccccccddddddddddddeeeeeeeefffffffgggggghhhhhhiiiiijjjjkkkkkllllmmmmnnnnoooopppqqqqrrrsssstttuuuuvvvwwwxxxxyyyzzz+..+
(PID.TID 0000.0001) //    162 +..+zzzyyyxxxxwwwvvvuuuutttsssrrrrqqqqpppoooonnnnmmmmllllkkkkjjjjjiiiiihhhhhggggggfffffffeeeeeeeeddddddddddccccccccccccccccccccccccccccccccccccccddddddddddeeeeeeeefffffffgggggghhhhhiiiiijjjjjkkkkllllmmmmnnnnoooopppqqqqrrrrssstttuuuuvvvwwwxxxxyyyzzz+..+
(PID.TID 0000.0001) //    161 +..+zzzyyyxxxwwwwvvvuuuttttsssrrrrqqqppppoooonnnmmmmlllllkkkkjjjjiiiiihhhhhggggggfffffffeeeeeeedddddddddddccccccccccccccccccccccccccccccccccccccccdddddddddddeeeeeeefffffffgggggghhhhhiiiiijjjjkkkklllllmmmmnnnooooppppqqqrrrrsssttttuuuvvvwwwwxxxyyyzzz+..+
(PID.TID 0000.0001) //    160 +..+zzzyyyxxxwwwwvvvuuuttttsssrrrrqqqppppooonnnnmmmmllllkkkkjjjjjiiiiihhhhhgggggfffffffeeeeeeeddddddddddccccccccccccccccccccccccccccccccccccccccccccddddddddddeeeeeeefffffffggggghhhhhiiiiijjjjjkkkkllllmmmmnnnnoooppppqqqrrrrsssttttuuuvvvwwwwxxxyyyzzz+..+
(PID.TID 0000.0001) //    159 +..+zzzyyyxxxwwwwvvvuuutttssssrrrqqqqpppoooonnnnmmmmllllkkkkjjjjiiiiihhhhhggggggffffffeeeeeeedddddddddcccccccccccccccccbbbbbbbbbbbbbbcccccccccccccccccdddddddddeeeeeeeffffffgggggghhhhhiiiiijjjjkkkkllllmmmmnnnnoooopppqqqqrrrsssstttuuuvvvwwwwxxxyyyzzz+..+
(PID.TID 0000.0001) //    158 +..+zzzyyyxxxwwwvvvvuuutttssssrrrqqqqpppoooonnnnmmmllllkkkkkjjjjiiiiihhhhhgggggffffffeeeeeeedddddddddccccccccccccccbbbbbbbbbbbbbbbbbbbbbbccccccccccccccdddddddddeeeeeeeffffffggggghhhhhiiiiijjjjkkkkkllllmmmnnnnoooopppqqqqrrrsssstttuuuvvvvwwwxxxyyyzzz+..+
(PID.TID 0000.0001) //    157 +..+zzzyyyxxxwwwvvvvuuutttssssrrrqqqppppoooonnnmmmmllllkkkkjjjjjiiiihhhhhgggggffffffeeeeeeedddddddddccccccccccccbbbbbbbbbbbbbbbbbbbbbbbbbbbbccccccccccccdddddddddeeeeeeeffffffggggghhhhhiiiijjjjjkkkkllllmmmmnnnooooppppqqqrrrsssstttuuuvvvvwwwxxxyyyzzz+..+
(PID.TID 0000.0001) //    156 +..+zzzyyyxxxwwwvvvvuuutttsssrrrrqqqppppooonnnnmmmmllllkkkkjjjjiiiiihhhhhgggggffffffeeeeeeddddddddccccccccccccbbbbbbbbbbbbbbbbbbbbbbbbbbbbbbbbccccccccccccddddddddeeeeeeffffffggggghhhhhiiiiijjjjkkkkllllmmmmnnnnoooppppqqqrrrrssstttuuuvvvvwwwxxxyyyzzz+..+
(PID.TID 0000.0001) //    155 +..+zzzyyyxxxwwwvvvuuuutttsssrrrrqqqppppooonnnnmmmmlllkkkkkjjjjiiiihhhhhgggggffffffeeeeeeedddddddcccccccccccbbbbbbbbbbbbbbbbbbbbbbbbbbbbbbbbbbbbcccccccccccdddddddeeeeeeeffffffggggghhhhhiiiijjjjkkkkklllmmmmnnnnoooppppqqqrrrrssstttuuuuvvvwwwxxxyyyzzz+..+
(PID.TID 0000.0001) //    154 +..+zzzyyyxxxwwwvvvuuuutttsssrrrqqqqpppoooonnnnmmmllllkkkkjjjjiiiiihhhhhgggggfffffeeeeeeedddddddcccccccccccbbbbbbbbbbbbbbbbbbbbbbbbbbbbbbbbbbbbbbcccccccccccdddddddeeeeeeefffffggggghhhhhiiiiijjjjkkkkllllmmmnnnnoooopppqqqqrrrssstttuuuuvvvwwwxxxyyyzzz+..+
(PID.TID 0000.0001) //    153 +..+zzzyyyxxxwwwvvvuuuttttsssrrrqqqqpppoooonnnmmmmllllkkkkjjjjiiiiihhhhgggggffffffeeeeeedddddddccccccccccbbbbbbbbbbbbbbbbbbbbbbbbbbbbbbbbbbbbbbbbbbccccccccccdddddddeeeeeeffffffggggghhhhiiiiijjjjkkkkllllmmmmnnnoooopppqqqqrrrsssttttuuuvvvwwwxxxyyyzzz+..+
(PID.TID 0000.0001) //    152 +..+zzzyyyxxxwwwvvvuuuttttsssrrrqqqqpppooonnnnmmmmllllkkkkjjjjiiiihhhhhgggggfffffeeeeeeddddddddcccccccccbbbbbbbbbbbbbbbbbbbbbbbbbbbbbbbbbbbbbbbbbbbbcccccccccddddddddeeeeeefffffggggghhhhhiiiijjjjkkkkllllmmmmnnnnooopppqqqqrrrsssttttuuuvvvwwwxxxyyyzzz+..+
(PID.TID 0000.0001) //    151 +..+zzzyyyxxxwwwvvvuuuttttsssrrrqqqppppooonnnnmmmmlllkkkkjjjjiiiiihhhhgggggffffffeeeeeedddddddcccccccccbbbbbbbbbbbbbbbbaaaaaaaaaaaaaabbbbbbbbbbbbbbbbcccccccccdddddddeeeeeeffffffggggghhhhiiiiijjjjkkkklllmmmmnnnnoooppppqqqrrrsssttttuuuvvvwwwxxxyyyzzz+..+
(PID.TID 0000.0001) //    150 +..+zzzyyyxxxwwwvvvuuutttssssrrrqqqppppooonnnnmmmllllkkkkjjjjiiiihhhhhgggggfffffeeeeeedddddddcccccccccbbbbbbbbbbbbbbaaaaaaaaaaaaaaaaaaaabbbbbbbbbbbbbbcccccccccdddddddeeeeeefffffggggghhhhhiiiijjjjkkkkllllmmmnnnnoooppppqqqrrrsssstttuuuvvvwwwxxxyyyzzz+..+
(PID.TID 0000.0001) //    149 +..+zzzyyyxxxwwwvvvuuutttssssrrrqqqpppoooonnnmmmmllllkkkkjjjjiiiihhhhhggggffffffeeeeeeddddddcccccccccbbbbbbbbbbbbbaaaaaaaaaaaaaaaaaaaaaaaabbbbbbbbbbbbbcccccccccddddddeeeeeeffffffgggghhhhhiiiijjjjkkkkllllmmmmnnnoooopppqqqrrrsssstttuuuvvvwwwxxxyyyzzz+..+
(PID.TID 0000.0001) //    148 +..+zzzyyyxxxwwwvvvuuutttsssrrrrqqqpppoooonnnmmmmllllkkkkjjjjiiiihhhhgggggfffffeeeeeedddddddccccccccbbbbbbbbbbbbaaaaaaaaaaaaaaaaaaaaaaaaaaaabbbbbbbbbbbbccccccccdddddddeeeeeefffffggggghhhhiiiijjjjkkkkllllmmmmnnnoooopppqqqrrrrssstttuuuvvvwwwxxxyyyzzz+..+
(PID.TID 0000.0001) //    147 +..+zzzyyyxxxwwwvvvuuutttsssrrrrqqqpppoooonnnmmmmlllkkkkjjjjiiiiihhhhgggggfffffeeeeeeddddddccccccccbbbbbbbbbbbaaaaaaaaaaaaaaaaaaaaaaaaaaaaaaaabbbbbbbbbbbccccccccddddddeeeeeefffffggggghhhhiiiiijjjjkkkklllmmmmnnnoooopppqqqrrrrssstttuuuvvvwwwxxxyyyzzz+..+
(PID.TID 0000.0001) //    146 +..+zzzyyyxxxwwwvvvuuutttsssrrrqqqqpppooonnnnmmmmlllkkkkjjjjiiiihhhhhggggfffffeeeeeedddddddcccccccbbbbbbbbbbbaaaaaaaaaaaaaaaaaaaaaaaaaaaaaaaaaabbbbbbbbbbbcccccccdddddddeeeeeefffffgggghhhhhiiiijjjjkkkklllmmmmnnnnooopppqqqqrrrssstttuuuvvvwwwxxxyyyzzz+..+
(PID.TID 0000.0001) //    145 +..+zzzyyyxxxwwwvvvuuutttsssrrrqqqqpppooonnnnmmmllllkkkkjjjjiiiihhhhgggggfffffeeeeeeddddddccccccccbbbbbbbbbbaaaaaaaaaaaaaaaaaaaaaaaaaaaaaaaaaaaabbbbbbbbbbccccccccddddddeeeeeefffffggggghhhhiiiijjjjkkkkllllmmmnnnnooopppqqqqrrrssstttuuuvvvwwwxxxyyyzzz+..+
(PID.TID 0000.0001) //    144 +..+zzzyyyxxxwwwvvvuuutttsssrrrqqqqpppooonnnnmmmllllkkkkjjjjiiiihhhhgggggfffffeeeeeddddddccccccccbbbbbbbbbbaaaaaaaaaaaaaaaaaaaaaaaaaaaaaaaaaaaaaabbbbbbbbbbccccccccddddddeeeeefffffggggghhhhiiiijjjjkkkkllllmmmnnnnooopppqqqqrrrssstttuuuvvvwwwxxxyyyzzz+..+
(PID.TID 0000.0001) //    143 +..+zzzyyyxxxwwwvvvuuutttsssrrrqqqppppooonnnnmmmllllkkkjjjjiiiihhhhhggggfffffeeeeeeddddddcccccccbbbbbbbbbbaaaaaaaaaaaaaaaaaaaaaaaaaaaaaaaaaaaaaaaabbbbbbbbbbcccccccddddddeeeeeefffffgggghhhhhiiiijjjjkkkllllmmmnnnnoooppppqqqrrrssstttuuuvvvwwwxxxyyyzzz+..+
(PID.TID 0000.0001) //    142 +..+zzzyyyxxxwwwvvvuuutttsssrrrqqqppppooonnnmmmmllllkkkjjjjiiiihhhhhggggfffffeeeeedddddddcccccccbbbbbbbbbaaaaaaaaaaaaaaaaaaaaaaaaaaaaaaaaaaaaaaaaaabbbbbbbbbcccccccdddddddeeeeefffffgggghhhhhiiiijjjjkkkllllmmmmnnnoooppppqqqrrrssstttuuuvvvwwwxxxyyyzzz+..+
(PID.TID 0000.0001) //    141 +..+zzzyyyxxxwwwvvvuuutttsssrrrqqqpppoooonnnmmmmlllkkkkjjjjiiiihhhhgggggfffffeeeeeddddddcccccccbbbbbbbbbaaaaaaaaaaaaaaaaaaaaaaaaaaaaaaaaaaaaaaaaaaaabbbbbbbbbcccccccddddddeeeeefffffggggghhhhiiiijjjjkkkklllmmmmnnnoooopppqqqrrrssstttuuuvvvwwwxxxyyyzzz+..+
(PID.TID 0000.0001) //    140 +..+zzzyyxxxwwwvvvvuuutttsssrrrqqqpppoooonnnmmmmlllkkkkjjjjiiiihhhhgggggfffffeeeeeddddddcccccccbbbbbbbbbaaaaaaaaaaaaaaaaa----------aaaaaaaaaaaaaaaaabbbbbbbbbcccccccddddddeeeeefffffggggghhhhiiiijjjjkkkklllmmmmnnnoooopppqqqrrrssstttuuuvvvvwwwxxxyyzzz+..+
(PID.TID 0000.0001) //    139 +..+zzyyyxxxwwwvvvuuuutttsssrrrqqqpppoooonnnmmmmlllkkkkjjjjiiiihhhhggggfffffeeeeeedddddcccccccbbbbbbbbbaaaaaaaaaaaaaaaa--------------aaaaaaaaaaaaaaaabbbbbbbbbcccccccdddddeeeeeefffffgggghhhhiiiijjjjkkkklllmmmmnnnoooopppqqqrrrssstttuuuuvvvwwwxxxyyyzz+..+
(PID.TID 0000.0001) //    138 +..+zzyyyxxxwwwvvvuuuttttsssrrrqqqpppoooonnnmmmllllkkkkjjjjiiiihhhhggggfffffeeeeeddddddcccccccbbbbbbbbbaaaaaaaaaaaaaa------------------aaaaaaaaaaaaaabbbbbbbbbcccccccddddddeeeeefffffgggghhhhiiiijjjjkkkkllllmmmnnnoooopppqqqrrrsssttttuuuvvvwwwxxxyyyzz+..+
(PID.TID 0000.0001) //    137 +..+zzyyyxxxwwwvvvuuutttssssrrrqqqpppooonnnnmmmllllkkkkjjjiiiihhhhhggggfffffeeeeeddddddcccccccbbbbbbbbaaaaaaaaaaaaaa--------------------aaaaaaaaaaaaaabbbbbbbbcccccccddddddeeeeefffffgggghhhhhiiiijjjkkkkllllmmmnnnnooopppqqqrrrsssstttuuuvvvwwwxxxyyyzz+..+
(PID.TID 0000.0001) //    136 +..+zzyyyxxxwwwvvvuuutttssssrrrqqqpppooonnnnmmmllllkkkjjjjiiiihhhhgggggfffffeeeeeddddddccccccbbbbbbbbbaaaaaaaaaaaaa----------------------aaaaaaaaaaaaabbbbbbbbbccccccddddddeeeeefffffggggghhhhiiiijjjjkkkllllmmmnnnnooopppqqqrrrsssstttuuuvvvwwwxxxyyyzz+..+
(PID.TID 0000.0001) //    135 +..+zzyyyxxxwwwvvvuuutttssssrrrqqqpppooonnnnmmmllllkkkjjjjiiiihhhhgggggffffeeeeeedddddcccccccbbbbbbbbaaaaaaaaaaaaa------------------------aaaaaaaaaaaaabbbbbbbbcccccccdddddeeeeeeffffggggghhhhiiiijjjjkkkllllmmmnnnnooopppqqqrrrsssstttuuuvvvwwwxxxyyyzz+..+
(PID.TID 0000.0001) //    134 +..+zzyyyxxxwwwvvvuuutttsssrrrrqqqpppooonnnnmmmllllkkkjjjjiiiihhhhgggggffffeeeeeddddddcccccccbbbbbbbbaaaaaaaaaaaa--------------------------aaaaaaaaaaaabbbbbbbbcccccccddddddeeeeeffffggggghhhhiiiijjjjkkkllllmmmnnnnooopppqqqrrrrssstttuuuvvvwwwxxxyyyzz+..+
(PID.TID 0000.0001) //    133 +..+zzyyyxxxwwwvvvuuutttsssrrrrqqqpppooonnnnmmmllllkkkjjjjiiiihhhhggggfffffeeeeeddddddcccccccbbbbbbbbaaaaaaaaaaaa--------------------------aaaaaaaaaaaabbbbbbbbcccccccddddddeeeeefffffgggghhhhiiiijjjjkkkllllmmmnnnnooopppqqqrrrrssstttuuuvvvwwwxxxyyyzz+..+
(PID.TID 0000.0001) //    132 +..+zzyyyxxxwwwvvvuuutttsssrrrrqqqpppooonnnnmmmlllkkkkjjjjiiiihhhhggggfffffeeeeeddddddccccccbbbbbbbbaaaaaaaaaaaa----------------------------aaaaaaaaaaaabbbbbbbbccccccddddddeeeeefffffgggghhhhiiiijjjjkkkklllmmmnnnnooopppqqqrrrrssstttuuuvvvwwwxxxyyyzz+..+
(PID.TID 0000.0001) //    131 +..+zzyyyxxxwwwvvvuuutttsssrrrqqqqpppooonnnmmmmlllkkkkjjjjiiiihhhhggggfffffeeeeeddddddccccccbbbbbbbbaaaaaaaaaaaa----------------------------aaaaaaaaaaaabbbbbbbbccccccddddddeeeeefffffgggghhhhiiiijjjjkkkklllmmmmnnnooopppqqqqrrrssstttuuuvvvwwwxxxyyyzz+..+
(PID.TID 0000.0001) //    130 +..+zzyyyxxxwwwvvvuuutttsssrrrqqqqpppooonnnmmmmlllkkkkjjjjiiiihhhhggggfffffeeeeeddddddccccccbbbbbbbbaaaaaaaaaaa------------------------------aaaaaaaaaaabbbbbbbbccccccddddddeeeeefffffgggghhhhiiiijjjjkkkklllmmmmnnnooopppqqqqrrrssstttuuuvvvwwwxxxyyyzz+..+
(PID.TID 0000.0001) //    129 +..+zzyyyxxxwwwvvvuuutttsssrrrqqqqpppooonnnmmmmlllkkkkjjjjiiiihhhhggggfffffeeeeeddddddccccccbbbbbbbbaaaaaaaaaaa------------------------------aaaaaaaaaaabbbbbbbbccccccddddddeeeeefffffgggghhhhiiiijjjjkkkklllmmmmnnnooopppqqqqrrrssstttuuuvvvwwwxxxyyyzz+..+
(PID.TID 0000.0001) //    128 +..+zzyyyxxxwwwvvvuuutttsssrrrqqqqpppooonnnmmmmlllkkkkjjjjiiiihhhhggggfffffeeeeedddddcccccccbbbbbbbbaaaaaaaaaaa------------------------------aaaaaaaaaaabbbbbbbbcccccccdddddeeeeefffffgggghhhhiiiijjjjkkkklllmmmmnnnooopppqqqqrrrssstttuuuvvvwwwxxxyyyzz+..+
(PID.TID 0000.0001) //    127 +..+zzyyyxxxwwwvvvuuutttsssrrrqqqqpppooonnnmmmmlllkkkkjjjjiiiihhhhggggfffffeeeeedddddcccccccbbbbbbbbaaaaaaaaaaa------------------------------aaaaaaaaaaabbbbbbbbcccccccdddddeeeeefffffgggghhhhiiiijjjjkkkklllmmmmnnnooopppqqqqrrrssstttuuuvvvwwwxxxyyyzz+..+
(PID.TID 0000.0001) //    126 +..+zzyyyxxxwwwvvvuuutttsssrrrqqqqpppooonnnmmmmlllkkkkjjjjiiiihhhhggggfffffeeeeedddddcccccccbbbbbbbbaaaaaaaaaaa------------------------------aaaaaaaaaaabbbbbbbbcccccccdddddeeeeefffffgggghhhhiiiijjjjkkkklllmmmmnnnooopppqqqqrrrssstttuuuvvvwwwxxxyyyzz+..+
(PID.TID 0000.0001) //    125 +..+zzyyyxxxwwwvvvuuutttsssrrrqqqqpppooonnnmmmmlllkkkkjjjjiiiihhhhggggfffffeeeeedddddcccccccbbbbbbbbaaaaaaaaaaa------------------------------aaaaaaaaaaabbbbbbbbcccccccdddddeeeeefffffgggghhhhiiiijjjjkkkklllmmmmnnnooopppqqqqrrrssstttuuuvvvwwwxxxyyyzz+..+
(PID.TID 0000.0001) //    124 +..+zzyyyxxxwwwvvvuuutttsssrrrqqqqpppooonnnmmmmlllkkkkjjjjiiiihhhhggggfffffeeeeedddddcccccccbbbbbbbbaaaaaaaaaaa------------------------------aaaaaaaaaaabbbbbbbbcccccccdddddeeeeefffffgggghhhhiiiijjjjkkkklllmmmmnnnooopppqqqqrrrssstttuuuvvvwwwxxxyyyzz+..+
(PID.TID 0000.0001) //    123 +..+zzyyyxxxwwwvvvuuutttsssrrrqqqqpppooonnnmmmmlllkkkkjjjjiiiihhhhggggfffffeeeeedddddcccccccbbbbbbbbaaaaaaaaaaa------------------------------aaaaaaaaaaabbbbbbbbcccccccdddddeeeeefffffgggghhhhiiiijjjjkkkklllmmmmnnnooopppqqqqrrrssstttuuuvvvwwwxxxyyyzz+..+
(PID.TID 0000.0001) //    122 +..+zzyyyxxxwwwvvvuuutttsssrrrqqqqpppooonnnmmmmlllkkkkjjjjiiiihhhhggggfffffeeeeedddddcccccccbbbbbbbbaaaaaaaaaaa------------------------------aaaaaaaaaaabbbbbbbbcccccccdddddeeeeefffffgggghhhhiiiijjjjkkkklllmmmmnnnooopppqqqqrrrssstttuuuvvvwwwxxxyyyzz+..+
(PID.TID 0000.0001) //    121 +..+zzyyyxxxwwwvvvuuutttsssrrrqqqqpppooonnnmmmmlllkkkkjjjjiiiihhhhggggfffffeeeeeddddddccccccbbbbbbbbaaaaaaaaaaa------------------------------aaaaaaaaaaabbbbbbbbccccccddddddeeeeefffffgggghhhhiiiijjjjkkkklllmmmmnnnooopppqqqqrrrssstttuuuvvvwwwxxxyyyzz+..+
(PID.TID 0000.0001) //    120 +..+zzyyyxxxwwwvvvuuutttsssrrrqqqqpppooonnnmmmmlllkkkkjjjjiiiihhhhggggfffffeeeeeddddddccccccbbbbbbbbaaaaaaaaaaa------------------------------aaaaaaaaaaabbbbbbbbccccccddddddeeeeefffffgggghhhhiiiijjjjkkkklllmmmmnnnooopppqqqqrrrssstttuuuvvvwwwxxxyyyzz+..+
(PID.TID 0000.0001) //    119 +..+zzyyyxxxwwwvvvuuutttsssrrrqqqqpppooonnnmmmmlllkkkkjjjjiiiihhhhggggfffffeeeeeddddddccccccbbbbbbbbaaaaaaaaaaaa----------------------------aaaaaaaaaaaabbbbbbbbccccccddddddeeeeefffffgggghhhhiiiijjjjkkkklllmmmmnnnooopppqqqqrrrssstttuuuvvvwwwxxxyyyzz+..+
(PID.TID 0000.0001) //    118 +..+zzyyyxxxwwwvvvuuutttsssrrrrqqqpppooonnnnmmmlllkkkkjjjjiiiihhhhggggfffffeeeeeddddddccccccbbbbbbbbaaaaaaaaaaaa----------------------------aaaaaaaaaaaabbbbbbbbccccccddddddeeeeefffffgggghhhhiiiijjjjkkkklllmmmnnnnooopppqqqrrrrssstttuuuvvvwwwxxxyyyzz+..+
(PID.TID 0000.0001) //    117 +..+zzyyyxxxwwwvvvuuutttsssrrrrqqqpppooonnnnmmmllllkkkjjjjiiiihhhhggggfffffeeeeeddddddcccccccbbbbbbbbaaaaaaaaaaaa--------------------------aaaaaaaaaaaabbbbbbbbcccccccddddddeeeeefffffgggghhhhiiiijjjjkkkllllmmmnnnnooopppqqqrrrrssstttuuuvvvwwwxxxyyyzz+..+
(PID.TID 0000.0001) //    116 +..+zzyyyxxxwwwvvvuuutttsssrrrrqqqpppooonnnnmmmllllkkkjjjjiiiihhhhgggggffffeeeeeddddddcccccccbbbbbbbbaaaaaaaaaaaa--------------------------aaaaaaaaaaaabbbbbbbbcccccccddddddeeeeeffffggggghhhhiiiijjjjkkkllllmmmnnnnooopppqqqrrrrssstttuuuvvvwwwxxxyyyzz+..+
(PID.TID 0000.0001) //    115 +..+zzyyyxxxwwwvvvuuutttssssrrrqqqpppooonnnnmmmllllkkkjjjjiiiihhhhgggggffffeeeeeedddddcccccccbbbbbbbbaaaaaaaaaaaaa------------------------aaaaaaaaaaaaabbbbbbbbcccccccdddddeeeeeeffffggggghhhhiiiijjjjkkkllllmmmnnnnooopppqqqrrrsssstttuuuvvvwwwxxxyyyzz+..+
(PID.TID 0000.0001) //    114 +..+zzyyyxxxwwwvvvuuutttssssrrrqqqpppooonnnnmmmllllkkkjjjjiiiihhhhgggggfffffeeeeeddddddccccccbbbbbbbbbaaaaaaaaaaaaa----------------------aaaaaaaaaaaaabbbbbbbbbccccccddddddeeeeefffffggggghhhhiiiijjjjkkkllllmmmnnnnooopppqqqrrrsssstttuuuvvvwwwxxxyyyzz+..+
(PID.TID 0000.0001) //    113 +..+zzyyyxxxwwwvvvuuutttssssrrrqqqpppooonnnnmmmllllkkkkjjjiiiihhhhhggggfffffeeeeeddddddcccccccbbbbbbbbaaaaaaaaaaaaaa--------------------aaaaaaaaaaaaaabbbbbbbbcccccccddddddeeeeefffffgggghhhhhiiiijjjkkkkllllmmmnnnnooopppqqqrrrsssstttuuuvvvwwwxxxyyyzz+..+
(PID.TID 0000.0001) //    112 +..+zzyyyxxxwwwvvvuuuttttsssrrrqqqpppoooonnnmmmllllkkkkjjjjiiiihhhhggggfffffeeeeeddddddcccccccbbbbbbbbbaaaaaaaaaaaaaa------------------aaaaaaaaaaaaaabbbbbbbbbcccccccddddddeeeeefffffgggghhhhiiiijjjjkkkkllllmmmnnnoooopppqqqrrrsssttttuuuvvvwwwxxxyyyzz+..+
(PID.TID 0000.0001) //    111 +..+zzyyyxxxwwwvvvuuuutttsssrrrqqqpppoooonnnmmmmlllkkkkjjjjiiiihhhhggggfffffeeeeeedddddcccccccbbbbbbbbbaaaaaaaaaaaaaaaa--------------aaaaaaaaaaaaaaaabbbbbbbbbcccccccdddddeeeeeefffffgggghhhhiiiijjjjkkkklllmmmmnnnoooopppqqqrrrssstttuuuuvvvwwwxxxyyyzz+..+
(PID.TID 0000.0001) //    110 +..+zzzyyxxxwwwvvvvuuutttsssrrrqqqpppoooonnnmmmmlllkkkkjjjjiiiihhhhgggggfffffeeeeeddddddcccccccbbbbbbbbbaaaaaaaaaaaaaaaaa----------aaaaaaaaaaaaaaaaabbbbbbbbbcccccccddddddeeeeefffffggggghhhhiiiijjjjkkkklllmmmmnnnoooopppqqqrrrssstttuuuvvvvwwwxxxyyzzz+..+
(PID.TID 0000.0001) //    109 +..+zzzyyyxxxwwwvvvuuutttsssrrrqqqpppoooonnnmmmmlllkkkkjjjjiiiihhhhgggggfffffeeeeeddddddcccccccbbbbbbbbbaaaaaaaaaaaaaaaaaaaaaaaaaaaaaaaaaaaaaaaaaaaabbbbbbbbbcccccccddddddeeeeefffffggggghhhhiiiijjjjkkkklllmmmmnnnoooopppqqqrrrssstttuuuvvvwwwxxxyyyzzz+..+
(PID.TID 0000.0001) //    108 +..+zzzyyyxxxwwwvvvuuutttsssrrrqqqppppooonnnmmmmllllkkkjjjjiiiihhhhhggggfffffeeeeedddddddcccccccbbbbbbbbbaaaaaaaaaaaaaaaaaaaaaaaaaaaaaaaaaaaaaaaaaabbbbbbbbbcccccccdddddddeeeeefffffgggghhhhhiiiijjjjkkkllllmmmmnnnoooppppqqqrrrssstttuuuvvvwwwxxxyyyzzz+..+
(PID.TID 0000.0001) //    107 +..+zzzyyyxxxwwwvvvuuutttsssrrrqqqppppooonnnnmmmllllkkkjjjjiiiihhhhhggggfffffeeeeeeddddddcccccccbbbbbbbbbbaaaaaaaaaaaaaaaaaaaaaaaaaaaaaaaaaaaaaaaabbbbbbbbbbcccccccddddddeeeeeefffffgggghhhhhiiiijjjjkkkllllmmmnnnnoooppppqqqrrrssstttuuuvvvwwwxxxyyyzzz+..+
(PID.TID 0000.0001) //    106 +..+zzzyyyxxxwwwvvvuuutttsssrrrqqqqpppooonnnnmmmllllkkkkjjjjiiiihhhhgggggfffffeeeeeddddddccccccccbbbbbbbbbbaaaaaaaaaaaaaaaaaaaaaaaaaaaaaaaaaaaaaabbbbbbbbbbccccccccddddddeeeeefffffggggghhhhiiiijjjjkkkkllllmmmnnnnooopppqqqqrrrssstttuuuvvvwwwxxxyyyzzz+..+
(PID.TID 0000.0001) //    105 +..+zzzyyyxxxwwwvvvuuutttsssrrrqqqqpppooonnnnmmmllllkkkkjjjjiiiihhhhgggggfffffeeeeeeddddddccccccccbbbbbbbbbbaaaaaaaaaaaaaaaaaaaaaaaaaaaaaaaaaaaabbbbbbbbbbccccccccddddddeeeeeefffffggggghhhhiiiijjjjkkkkllllmmmnnnnooopppqqqqrrrssstttuuuvvvwwwxxxyyyzzz+..+
(PID.TID 0000.0001) //    104 +..+zzzyyyxxxwwwvvvuuutttsssrrrqqqqpppooonnnnmmmmlllkkkkjjjjiiiihhhhhggggfffffeeeeeedddddddcccccccbbbbbbbbbbbaaaaaaaaaaaaaaaaaaaaaaaaaaaaaaaaaabbbbbbbbbbbcccccccdddddddeeeeeefffffgggghhhhhiiiijjjjkkkklllmmmmnnnnooopppqqqqrrrssstttuuuvvvwwwxxxyyyzzz+..+
(PID.TID 0000.0001) //    103 +..+zzzyyyxxxwwwvvvuuutttsssrrrrqqqpppoooonnnmmmmlllkkkkjjjjiiiiihhhhgggggfffffeeeeeeddddddccccccccbbbbbbbbbbbaaaaaaaaaaaaaaaaaaaaaaaaaaaaaaaabbbbbbbbbbbccccccccddddddeeeeeefffffggggghhhhiiiiijjjjkkkklllmmmmnnnoooopppqqqrrrrssstttuuuvvvwwwxxxyyyzzz+..+
(PID.TID 0000.0001) //    102 +..+zzzyyyxxxwwwvvvuuutttsssrrrrqqqpppoooonnnmmmmllllkkkkjjjjiiiihhhhgggggfffffeeeeeedddddddccccccccbbbbbbbbbbbbaaaaaaaaaaaaaaaaaaaaaaaaaaaabbbbbbbbbbbbccccccccdddddddeeeeeefffffggggghhhhiiiijjjjkkkkllllmmmmnnnoooopppqqqrrrrssstttuuuvvvwwwxxxyyyzzz+..+
(PID.TID 0000.0001) //    101 +..+zzzyyyxxxwwwvvvuuutttssssrrrqqqpppoooonnnmmmmllllkkkkjjjjiiiihhhhhggggffffffeeeeeeddddddcccccccccbbbbbbbbbbbbbaaaaaaaaaaaaaaaaaaaaaaaabbbbbbbbbbbbbcccccccccddddddeeeeeeffffffgggghhhhhiiiijjjjkkkkllllmmmmnnnoooopppqqqrrrsssstttuuuvvvwwwxxxyyyzzz+..+
(PID.TID 0000.0001) //    100 +..+zzzyyyxxxwwwvvvuuutttssssrrrqqqppppooonnnnmmmllllkkkkjjjjiiiihhhhhgggggfffffeeeeeedddddddcccccccccbbbbbbbbbbbbbbaaaaaaaaaaaaaaaaaaaabbbbbbbbbbbbbbcccccccccdddddddeeeeeefffffggggghhhhhiiiijjjjkkkkllllmmmnnnnoooppppqqqrrrsssstttuuuvvvwwwxxxyyyzzz+..+
(PID.TID 0000.0001) //     99 +..+zzzyyyxxxwwwvvvuuuttttsssrrrqqqppppooonnnnmmmmlllkkkkjjjjiiiiihhhhgggggffffffeeeeeedddddddcccccccccbbbbbbbbbbbbbbbbaaaaaaaaaaaaaabbbbbbbbbbbbbbbbcccccccccdddddddeeeeeeffffffggggghhhhiiiiijjjjkkkklllmmmmnnnnoooppppqqqrrrsssttttuuuvvvwwwxxxyyyzzz+..+
(PID.TID 0000.0001) //     98 +..+zzzyyyxxxwwwvvvuuuttttsssrrrqqqqpppooonnnnmmmmllllkkkkjjjjiiiihhhhhgggggfffffeeeeeeddddddddcccccccccbbbbbbbbbbbbbbbbbbbbbbbbbbbbbbbbbbbbbbbbbbbbcccccccccddddddddeeeeeefffffggggghhhhhiiiijjjjkkkkllllmmmmnnnnooopppqqqqrrrsssttttuuuvvvwwwxxxyyyzzz+..+
(PID.TID 0000.0001) //     97 +..+zzzyyyxxxwwwvvvuuuttttsssrrrqqqqpppoooonnnmmmmllllkkkkjjjjiiiiihhhhgggggffffffeeeeeedddddddccccccccccbbbbbbbbbbbbbbbbbbbbbbbbbbbbbbbbbbbbbbbbbbccccccccccdddddddeeeeeeffffffggggghhhhiiiiijjjjkkkkllllmmmmnnnoooopppqqqqrrrsssttttuuuvvvwwwxxxyyyzzz+..+
(PID.TID 0000.0001) //     96 +..+zzzyyyxxxwwwvvvuuuutttsssrrrqqqqpppoooonnnnmmmllllkkkkjjjjiiiiihhhhhgggggfffffeeeeeeedddddddcccccccccccbbbbbbbbbbbbbbbbbbbbbbbbbbbbbbbbbbbbbbcccccccccccdddddddeeeeeeefffffggggghhhhhiiiiijjjjkkkkllllmmmnnnnoooopppqqqqrrrssstttuuuuvvvwwwxxxyyyzzz+..+
(PID.TID 0000.0001) //     95 +..+zzzyyyxxxwwwvvvuuuutttsssrrrrqqqppppooonnnnmmmmlllkkkkkjjjjiiiihhhhhgggggffffffeeeeeeedddddddcccccccccccbbbbbbbbbbbbbbbbbbbbbbbbbbbbbbbbbbbbcccccccccccdddddddeeeeeeeffffffggggghhhhhiiiijjjjkkkkklllmmmmnnnnoooppppqqqrrrrssstttuuuuvvvwwwxxxyyyzzz+..+
(PID.TID 0000.0001) //     94 +..+zzzyyyxxxwwwvvvvuuutttsssrrrrqqqppppooonnnnmmmmllllkkkkjjjjiiiiihhhhhgggggffffffeeeeeeddddddddccccccccccccbbbbbbbbbbbbbbbbbbbbbbbbbbbbbbbbccccccccccccddddddddeeeeeeffffffggggghhhhhiiiiijjjjkkkkllllmmmmnnnnoooppppqqqrrrrssstttuuuvvvvwwwxxxyyyzzz+..+
(PID.TID 0000.0001) //     93 +..+zzzyyyxxxwwwvvvvuuutttssssrrrqqqppppoooonnnmmmmllllkkkkjjjjjiiiihhhhhgggggffffffeeeeeeedddddddddccccccccccccbbbbbbbbbbbbbbbbbbbbbbbbbbbbccccccccccccdddddddddeeeeeeeffffffggggghhhhhiiiijjjjjkkkkllllmmmmnnnooooppppqqqrrrsssstttuuuvvvvwwwxxxyyyzzz+..+
(PID.TID 0000.0001) //     92 +..+zzzyyyxxxwwwvvvvuuutttssssrrrqqqqpppoooonnnnmmmllllkkkkkjjjjiiiiihhhhhgggggffffffeeeeeeedddddddddccccccccccccccbbbbbbbbbbbbbbbbbbbbbbccccccccccccccdddddddddeeeeeeeffffffggggghhhhhiiiiijjjjkkkkkllllmmmnnnnoooopppqqqqrrrsssstttuuuvvvvwwwxxxyyyzzz+..+
(PID.TID 0000.0001) //     91 +..+zzzyyyxxxwwwwvvvuuutttssssrrrqqqqpppoooonnnnmmmmllllkkkkjjjjiiiiihhhhhggggggffffffeeeeeeedddddddddcccccccccccccccccbbbbbbbbbbbbbbcccccccccccccccccdddddddddeeeeeeeffffffgggggghhhhhiiiiijjjjkkkkllllmmmmnnnnoooopppqqqqrrrsssstttuuuvvvwwwwxxxyyyzzz+..+
(PID.TID 0000.0001) //     90 +..+zzzyyyxxxwwwwvvvuuuttttsssrrrrqqqppppooonnnnmmmmllllkkkkjjjjjiiiiihhhhhgggggfffffffeeeeeeeddddddddddccccccccccccccccccccccccccccccccccccccccccccddddddddddeeeeeeefffffffggggghhhhhiiiiijjjjjkkkkllllmmmmnnnnoooppppqqqrrrrsssttttuuuvvvwwwwxxxyyyzzz+..+
(PID.TID 0000.0001) //     89 +..+zzzyyyxxxwwwwvvvuuuttttsssrrrrqqqppppoooonnnmmmmlllllkkkkjjjjiiiiihhhhhggggggfffffffeeeeeeedddddddddddccccccccccccccccccccccccccccccccccccccccdddddddddddeeeeeeefffffffgggggghhhhhiiiiijjjjkkkklllllmmmmnnnooooppppqqqrrrrsssttttuuuvvvwwwwxxxyyyzzz+..+
(PID.TID 0000.0001) //     88 +..+zzzyyyxxxxwwwvvvuuuutttsssrrrrqqqqpppoooonnnnmmmmllllkkkkjjjjjiiiiihhhhhggggggfffffffeeeeeeeeddddddddddccccccccccccccccccccccccccccccccccccccddddddddddeeeeeeeefffffffgggggghhhhhiiiiijjjjjkkkkllllmmmmnnnnoooopppqqqqrrrrssstttuuuuvvvwwwxxxxyyyzzz+..+
(PID.TID 0000.0001) //     87 +..+zzzyyyxxxxwwwvvvuuuutttssssrrrqqqqpppoooonnnnmmmmllllkkkkkjjjjiiiiihhhhhhggggggfffffffeeeeeeeeddddddddddddccccccccccccccccccccccccccccccccddddddddddddeeeeeeeefffffffgggggghhhhhhiiiiijjjjkkkkkllllmmmmnnnnoooopppqqqqrrrsssstttuuuuvvvwwwxxxxyyyzzz+..+
(PID.TID 0000.0001) //     86 +..+zzzyyyxxxxwwwvvvuuuutttssssrrrqqqqppppoooonnnnmmmmllllkkkkjjjjjiiiiihhhhhhggggggfffffffeeeeeeeedddddddddddddccccccccccccccccccccccccccccdddddddddddddeeeeeeeefffffffgggggghhhhhhiiiiijjjjjkkkkllllmmmmnnnnooooppppqqqqrrrsssstttuuuuvvvwwwxxxxyyyzzz+..+
(PID.TID 0000.0001) //     85 +..+zzzyyyxxxxwwwvvvvuuutttssssrrrrqqqppppoooonnnnmmmmllllkkkkkjjjjjiiiiihhhhhgggggggfffffffeeeeeeeeedddddddddddddddccccccccccccccccccccdddddddddddddddeeeeeeeeefffffffggggggghhhhhiiiiijjjjjkkkkkllllmmmmnnnnooooppppqqqrrrrsssstttuuuvvvvwwwxxxxyyyzzz+..+
(PID.TID 0000.0001) //     84 +..+zzzyyyxxxxwwwvvvvuuuttttsssrrrrqqqqpppoooonnnnmmmmlllllkkkkjjjjjiiiiihhhhhhgggggggfffffffeeeeeeeeeeddddddddddddddddddddccccccddddddddddddddddddddeeeeeeeeeefffffffggggggghhhhhhiiiiijjjjjkkkklllllmmmmnnnnoooopppqqqqrrrrsssttttuuuvvvvwwwxxxxyyyzzz+..+
(PID.TID 0000.0001) //     83 +..+zzzyyyyxxxwwwvvvvuuuttttsssrrrrqqqqppppoooonnnnmmmmllllkkkkkjjjjjiiiiihhhhhhgggggggfffffffeeeeeeeeeeeddddddddddddddddddddddddddddddddddddddddddeeeeeeeeeeefffffffggggggghhhhhhiiiiijjjjjkkkkkllllmmmmnnnnooooppppqqqqrrrrsssttttuuuvvvvwwwxxxyyyyzzz+..+
(PID.TID 0000.0001) //     82 +..+zzzyyyyxxxwwwvvvvuuuttttssssrrrqqqqppppoooonnnnmmmmlllllkkkkkjjjjjiiiiihhhhhhgggggggffffffffeeeeeeeeeeeddddddddddddddddddddddddddddddddddddddeeeeeeeeeeeffffffffggggggghhhhhhiiiiijjjjjkkkkklllllmmmmnnnnooooppppqqqqrrrssssttttuuuvvvvwwwxxxyyyyzzz+..+
(PID.TID 0000.0001) //     81 +..+zzzyyyyxxxwwwwvvvuuuutttssssrrrrqqqppppoooonnnnnmmmmllllkkkkkjjjjjiiiiiihhhhhhgggggggffffffffeeeeeeeeeeeeddddddddddddddddddddddddddddddddddeeeeeeeeeeeeffffffffggggggghhhhhhiiiiiijjjjjkkkkkllllmmmmnnnnnooooppppqqqrrrrsssstttuuuuvvvwwwwxxxyyyyzzz+..+
(PID.TID 0000.0001) //     80 +..+zzzyyyyxxxwwwwvvvuuuutttssssrrrrqqqqppppoooonnnnmmmmlllllkkkkkjjjjjiiiiiihhhhhhgggggggfffffffffeeeeeeeeeeeeeeddddddddddddddddddddddddddeeeeeeeeeeeeeefffffffffggggggghhhhhhiiiiiijjjjjkkkkklllllmmmmnnnnooooppppqqqqrrrrsssstttuuuuvvvwwwwxxxyyyyzzz+..+
(PID.TID 0000.0001) //     79 +..+zzzyyyyxxxwwwwvvvuuuuttttsssrrrrqqqqppppoooonnnnmmmmmlllllkkkkjjjjjjiiiiiihhhhhhgggggggffffffffffeeeeeeeeeeeeeeeeddddddddddddddddddeeeeeeeeeeeeeeeeffffffffffggggggghhhhhhiiiiiijjjjjjkkkklllllmmmmmnnnnooooppppqqqqrrrrsssttttuuuuvvvwwwwxxxyyyyzzz+..+
(PID.TID 0000.0001) //     78 +..+zzzyyyyxxxwwwwvvvvuuuttttssssrrrrqqqppppooooonnnnmmmmlllllkkkkkjjjjjjiiiiihhhhhhhggggggggffffffffffeeeeeeeeeeeeeeeeeeeeeeeeeeeeeeeeeeeeeeeeeeeeeeffffffffffgggggggghhhhhhhiiiiijjjjjjkkkkklllllmmmmnnnnoooooppppqqqrrrrssssttttuuuvvvvwwwwxxxyyyyzzz+..+
(PID.TID 0000.0001) //     77 +..+zzzyyyyxxxxwwwvvvvuuuttttssssrrrrqqqqppppoooonnnnmmmmmlllllkkkkkjjjjjiiiiiihhhhhhhggggggggfffffffffffeeeeeeeeeeeeeeeeeeeeeeeeeeeeeeeeeeeeeeeeeefffffffffffgggggggghhhhhhhiiiiiijjjjjkkkkklllllmmmmmnnnnooooppppqqqqrrrrssssttttuuuvvvvwwwxxxxyyyyzzz+..+
(PID.TID 0000.0001) //     76 +..+zzzyyyyxxxxwwwvvvvuuuutttssssrrrrqqqqppppooooonnnnmmmmmlllllkkkkkjjjjjiiiiiiihhhhhhhggggggggffffffffffffeeeeeeeeeeeeeeeeeeeeeeeeeeeeeeeeeeeeffffffffffffgggggggghhhhhhhiiiiiiijjjjjkkkkklllllmmmmmnnnnoooooppppqqqqrrrrsssstttuuuuvvvvwwwxxxxyyyyzzz+..+
(PID.TID 0000.0001) //     75 +..+zzzyyyyxxxxwwwvvvvuuuuttttssssrrrrqqqqppppoooonnnnnmmmmlllllkkkkkkjjjjjiiiiiiihhhhhhhgggggggggffffffffffffffeeeeeeeeeeeeeeeeeeeeeeeeeeeeffffffffffffffggggggggghhhhhhhiiiiiiijjjjjkkkkkklllllmmmmnnnnnooooppppqqqqrrrrssssttttuuuuvvvvwwwxxxxyyyyzzz+..+
(PID.TID 0000.0001) //     74 +..+zzzzyyyxxxxwwwwvvvuuuuttttssssrrrrqqqqppppooooonnnnmmmmmlllllkkkkkjjjjjjiiiiiiihhhhhhhggggggggggffffffffffffffffeeeeeeeeeeeeeeeeeeeeffffffffffffffffgggggggggghhhhhhhiiiiiiijjjjjjkkkkklllllmmmmmnnnnoooooppppqqqqrrrrssssttttuuuuvvvwwwwxxxxyyyzzzz+..+
(PID.TID 0000.0001) //     73 +..+zzzzyyyxxxxwwwwvvvvuuuttttssssrrrrqqqqpppppoooonnnnnmmmmmlllllkkkkkjjjjjjiiiiiiihhhhhhhhggggggggggffffffffffffffffffffffffffffffffffffffffffffffffgggggggggghhhhhhhhiiiiiiijjjjjjkkkkklllllmmmmmnnnnnoooopppppqqqqrrrrssssttttuuuvvvvwwwwxxxxyyyzzzz+..+
(PID.TID 0000.0001) //     72 +..+zzzzyyyxxxxwwwwvvvvuuuuttttssssrrrrqqqqppppooooonnnnmmmmmllllllkkkkkjjjjjjiiiiiiihhhhhhhhhgggggggggggffffffffffffffffffffffffffffffffffffffffffggggggggggghhhhhhhhhiiiiiiijjjjjjkkkkkllllllmmmmmnnnnoooooppppqqqqrrrrssssttttuuuuvvvvwwwwxxxxyyyzzzz+..+
(PID.TID 0000.0001) //     71 +..+zzzzyyyxxxxwwwwvvvvuuuuttttssssrrrrqqqqpppppoooonnnnnmmmmmlllllkkkkkkjjjjjjjiiiiiiihhhhhhhhhggggggggggggffffffffffffffffffffffffffffffffffffgggggggggggghhhhhhhhhiiiiiiijjjjjjjkkkkkklllllmmmmmnnnnnoooopppppqqqqrrrrssssttttuuuuvvvvwwwwxxxxyyyzzzz+..+
(PID.TID 0000.0001) //     70 +..+zzzzyyyyxxxwwwwvvvvuuuuttttssssrrrrqqqqqppppooooonnnnnmmmmmlllllkkkkkkjjjjjjjiiiiiiihhhhhhhhhhggggggggggggggffffffffffffffffffffffffffffgggggggggggggghhhhhhhhhhiiiiiiijjjjjjjkkkkkklllllmmmmmnnnnnoooooppppqqqqqrrrrssssttttuuuuvvvvwwwwxxxyyyyzzzz+..+
(PID.TID 0000.0001) //     69 +..+zzzzyyyyxxxxwwwvvvvuuuuttttsssssrrrrqqqqpppppooooonnnnmmmmmmlllllkkkkkkjjjjjjjiiiiiiiihhhhhhhhhhggggggggggggggggggffffffffffffffffgggggggggggggggggghhhhhhhhhhiiiiiiiijjjjjjjkkkkkklllllmmmmmmnnnnooooopppppqqqqrrrrsssssttttuuuuvvvvwwwxxxxyyyyzzzz+..+
(PID.TID 0000.0001) //     68 +..+zzzzyyyyxxxxwwwwvvvvuuuuttttssssrrrrqqqqqppppooooonnnnnmmmmmmlllllkkkkkkkjjjjjjjiiiiiiiihhhhhhhhhhhgggggggggggggggggggggggggggggggggggggggggggggghhhhhhhhhhhiiiiiiiijjjjjjjkkkkkkklllllmmmmmmnnnnnoooooppppqqqqqrrrrssssttttuuuuvvvvwwwwxxxxyyyyzzzz+..+
(PID.TID 0000.0001) //     67 +..+zzzzyyyyxxxxwwwwvvvvuuuuttttssssrrrrrqqqqpppppooooonnnnnmmmmmllllllkkkkkkkjjjjjjjiiiiiiiiihhhhhhhhhhhhgggggggggggggggggggggggggggggggggggggggghhhhhhhhhhhhiiiiiiiiijjjjjjjkkkkkkkllllllmmmmmnnnnnooooopppppqqqqrrrrrssssttttuuuuvvvvwwwwxxxxyyyyzzzz+..+
(PID.TID 0000.0001) //     66 +..+zzzzyyyyxxxxwwwwvvvvuuuutttttssssrrrrqqqqqpppppooooonnnnnmmmmmllllllkkkkkkkjjjjjjjjiiiiiiiiihhhhhhhhhhhhhhgggggggggggggggggggggggggggggggghhhhhhhhhhhhhhiiiiiiiiijjjjjjjjkkkkkkkllllllmmmmmnnnnnooooopppppqqqqqrrrrsssstttttuuuuvvvvwwwwxxxxyyyyzzzz+..+
(PID.TID 0000.0001) //     65 +..+zzzzyyyyxxxxwwwwvvvvuuuuuttttssssrrrrrqqqqpppppooooonnnnnnmmmmmlllllllkkkkkkjjjjjjjjiiiiiiiiiiihhhhhhhhhhhhhhhhgggggggggggggggggggggghhhhhhhhhhhhhhhhiiiiiiiiiiijjjjjjjjkkkkkklllllllmmmmmnnnnnnooooopppppqqqqrrrrrssssttttuuuuuvvvvwwwwxxxxyyyyzzzz+..+
(PID.TID 0000.0001) //     64 +..+zzzzyyyyxxxxwwwwvvvvvuuuuttttsssssrrrrqqqqqpppppooooonnnnnnmmmmmlllllllkkkkkkkjjjjjjjjiiiiiiiiiiihhhhhhhhhhhhhhhhhhhhhhhhhhhhhhhhhhhhhhhhhhhhhhhhhhiiiiiiiiiiijjjjjjjjkkkkkkklllllllmmmmmnnnnnnooooopppppqqqqqrrrrsssssttttuuuuvvvvvwwwwxxxxyyyyzzzz+..+
(PID.TID 0000.0001) //     63 +..+zzzzyyyyxxxxxwwwwvvvvuuuutttttssssrrrrrqqqqqpppppooooonnnnnnmmmmmmllllllkkkkkkkkjjjjjjjjiiiiiiiiiiiiihhhhhhhhhhhhhhhhhhhhhhhhhhhhhhhhhhhhhhhhhhiiiiiiiiiiiiijjjjjjjjkkkkkkkkllllllmmmmmmnnnnnnooooopppppqqqqqrrrrrsssstttttuuuuvvvvwwwwxxxxxyyyyzzzz+..+
(PID.TID 0000.0001) //     62 +..+zzzzyyyyxxxxxwwwwvvvvuuuuuttttsssssrrrrqqqqqpppppoooooonnnnnnmmmmmmlllllllkkkkkkkjjjjjjjjjjiiiiiiiiiiiiihhhhhhhhhhhhhhhhhhhhhhhhhhhhhhhhhhhhiiiiiiiiiiiiijjjjjjjjjjkkkkkkklllllllmmmmmmnnnnnnoooooopppppqqqqqrrrrsssssttttuuuuuvvvvwwwwxxxxxyyyyzzzz+..+
(PID.TID 0000.0001) //     61 +..+zzzzyyyyyxxxxwwwwvvvvvuuuutttttssssrrrrrqqqqqpppppoooooonnnnnnmmmmmmlllllllkkkkkkkkjjjjjjjjjjiiiiiiiiiiiiiiiiihhhhhhhhhhhhhhhhhhhhhhhhiiiiiiiiiiiiiiiiijjjjjjjjjjkkkkkkkklllllllmmmmmmnnnnnnoooooopppppqqqqqrrrrrsssstttttuuuuvvvvvwwwwxxxxyyyyyzzzz+..+
(PID.TID 0000.0001) //     60 +..+zzzzyyyyyxxxxwwwwvvvvvuuuutttttsssssrrrrrqqqqqpppppoooooonnnnnnmmmmmmllllllllkkkkkkkkjjjjjjjjjjjiiiiiiiiiiiiiiiiiiiiiiiiiiiiiiiiiiiiiiiiiiiiiiiiiiiijjjjjjjjjjjkkkkkkkkllllllllmmmmmmnnnnnnoooooopppppqqqqqrrrrrssssstttttuuuuvvvvvwwwwxxxxyyyyyzzzz+..+
(PID.TID 0000.0001) //     59 +..+zzzzzyyyyxxxxwwwwwvvvvuuuuutttttssssrrrrrqqqqqqpppppoooooonnnnnnmmmmmmmlllllllkkkkkkkkkjjjjjjjjjjjjjiiiiiiiiiiiiiiiiiiiiiiiiiiiiiiiiiiiiiiiiiiiijjjjjjjjjjjjjkkkkkkkkklllllllmmmmmmmnnnnnnoooooopppppqqqqqqrrrrrsssstttttuuuuuvvvvwwwwwxxxxyyyyzzzzz+..+
(PID.TID 0000.0001) //     58 +..+zzzzzyyyyxxxxxwwwwvvvvvuuuutttttsssssrrrrrqqqqqppppppoooooonnnnnnmmmmmmmllllllllkkkkkkkkkkjjjjjjjjjjjjjjiiiiiiiiiiiiiiiiiiiiiiiiiiiiiiiiiiiijjjjjjjjjjjjjjkkkkkkkkkkllllllllmmmmmmmnnnnnnooooooppppppqqqqqrrrrrssssstttttuuuuvvvvvwwwwxxxxxyyyyzzzzz+..+
(PID.TID 0000.0001) //     57 +..+zzzzzyyyyxxxxxwwwwvvvvvuuuuutttttsssssrrrrrqqqqqppppppoooooonnnnnnmmmmmmmmllllllllkkkkkkkkkkkjjjjjjjjjjjjjjjjjiiiiiiiiiiiiiiiiiiiiiiiijjjjjjjjjjjjjjjjjkkkkkkkkkkkllllllllmmmmmmmmnnnnnnooooooppppppqqqqqrrrrrssssstttttuuuuuvvvvvwwwwxxxxxyyyyzzzzz+..+
(PID.TID 0000.0001) //     56 +..+zzzzzyyyyxxxxxwwwwwvvvvuuuuutttttsssssrrrrrqqqqqqppppppoooooonnnnnnnmmmmmmmlllllllllkkkkkkkkkkkkjjjjjjjjjjjjjjjjjjjjjjjjjjjjjjjjjjjjjjjjjjjjjjjjjjjjkkkkkkkkkkkklllllllllmmmmmmmnnnnnnnooooooppppppqqqqqqrrrrrssssstttttuuuuuvvvvwwwwwxxxxxyyyyzzzzz+..+
(PID.TID 0000.0001) //     55 +..+zzzzzyyyyyxxxxwwwwwvvvvvuuuuutttttsssssrrrrrqqqqqqppppppoooooonnnnnnnmmmmmmmmllllllllllkkkkkkkkkkkkkjjjjjjjjjjjjjjjjjjjjjjjjjjjjjjjjjjjjjjjjjjjjkkkkkkkkkkkkkllllllllllmmmmmmmmnnnnnnnooooooppppppqqqqqqrrrrrssssstttttuuuuuvvvvvwwwwwxxxxyyyyyzzzzz+..+
(PID.TID 0000.0001) //     54 +..+zzzzzyyyyyxxxxxwwwwvvvvvuuuuutttttssssssrrrrrqqqqqqppppppooooooonnnnnnnmmmmmmmmllllllllllkkkkkkkkkkkkkkkjjjjjjjjjjjjjjjjjjjjjjjjjjjjjjjjjjjjkkkkkkkkkkkkkkkllllllllllmmmmmmmmnnnnnnnoooooooppppppqqqqqqrrrrrsssssstttttuuuuuvvvvvwwwwxxxxxyyyyyzzzzz+..+
(PID.TID 0000.0001) //     53 +..+zzzzzyyyyyxxxxxwwwwwvvvvvuuuuutttttsssssrrrrrrqqqqqqppppppooooooonnnnnnnnmmmmmmmmlllllllllllkkkkkkkkkkkkkkkkkkkjjjjjjjjjjjjjjjjjjjjjjkkkkkkkkkkkkkkkkkkklllllllllllmmmmmmmmnnnnnnnnoooooooppppppqqqqqqrrrrrrssssstttttuuuuuvvvvvwwwwwxxxxxyyyyyzzzzz+..+
(PID.TID 0000.0001) //     52 +..+zzzzzyyyyyxxxxxwwwwwvvvvvuuuuuttttttsssssrrrrrrqqqqqqppppppoooooooonnnnnnnmmmmmmmmmmllllllllllllkkkkkkkkkkkkkkkkkkkkkkkkkkkkkkkkkkkkkkkkkkkkkkkkkkkkllllllllllllmmmmmmmmmmnnnnnnnooooooooppppppqqqqqqrrrrrrsssssttttttuuuuuvvvvvwwwwwxxxxxyyyyyzzzzz+..+
(PID.TID 0000.0001) //     51 +..++zzzzyyyyyxxxxxwwwwwvvvvvvuuuuutttttssssssrrrrrrqqqqqqpppppppooooooonnnnnnnnmmmmmmmmmmllllllllllllllkkkkkkkkkkkkkkkkkkkkkkkkkkkkkkkkkkkkkkkkkkkkllllllllllllllmmmmmmmmmmnnnnnnnnooooooopppppppqqqqqqrrrrrrsssssstttttuuuuuvvvvvvwwwwwxxxxxyyyyyzzzz++..+
(PID.TID 0000.0001) //     50 +..++zzzzzyyyyyxxxxxwwwwwvvvvvuuuuuttttttssssssrrrrrrqqqqqqpppppppoooooooonnnnnnnnnmmmmmmmmmmlllllllllllllllllkkkkkkkkkkkkkkkkkkkkkkkkkkkkkkkklllllllllllllllllmmmmmmmmmmnnnnnnnnnoooooooopppppppqqqqqqrrrrrrssssssttttttuuuuuvvvvvwwwwwxxxxxyyyyyzzzzz++..+
(PID.TID 0000.0001) //     49 +..++zzzzzyyyyyxxxxxwwwwwvvvvvvuuuuuttttttssssssrrrrrrqqqqqqqpppppppoooooooonnnnnnnnnmmmmmmmmmmmmllllllllllllllllllllllkkkkkkkkkkkkkkllllllllllllllllllllllmmmmmmmmmmmmnnnnnnnnnoooooooopppppppqqqqqqqrrrrrrssssssttttttuuuuuvvvvvvwwwwwxxxxxyyyyyzzzzz++..+
(PID.TID 0000.0001) //     48 +..++zzzzzyyyyyxxxxxwwwwwwvvvvvuuuuuuttttttssssssrrrrrrqqqqqqqpppppppooooooooonnnnnnnnnnmmmmmmmmmmmmmllllllllllllllllllllllllllllllllllllllllllllllllllmmmmmmmmmmmmmnnnnnnnnnnooooooooopppppppqqqqqqqrrrrrrssssssttttttuuuuuuvvvvvwwwwwwxxxxxyyyyyzzzzz++..+
(PID.TID 0000.0001) //     47 +..++zzzzzyyyyyxxxxxxwwwwwvvvvvvuuuuuttttttsssssssrrrrrrqqqqqqqppppppppooooooooonnnnnnnnnnmmmmmmmmmmmmmmmmllllllllllllllllllllllllllllllllllllllllmmmmmmmmmmmmmmmmnnnnnnnnnnoooooooooppppppppqqqqqqqrrrrrrsssssssttttttuuuuuvvvvvvwwwwwxxxxxxyyyyyzzzzz++..+
(PID.TID 0000.0001) //     46 +..++zzzzzyyyyyyxxxxxwwwwwwvvvvvuuuuuuttttttsssssssrrrrrrqqqqqqqqppppppppooooooooonnnnnnnnnnnnmmmmmmmmmmmmmmmmmmmllllllllllllllllllllllllllmmmmmmmmmmmmmmmmmmmnnnnnnnnnnnnoooooooooppppppppqqqqqqqqrrrrrrsssssssttttttuuuuuuvvvvvwwwwwwxxxxxyyyyyyzzzzz++..+
(PID.TID 0000.0001) //     45 +..++zzzzzyyyyyyxxxxxwwwwwwvvvvvvuuuuuuttttttsssssssrrrrrrrqqqqqqqpppppppppoooooooooonnnnnnnnnnnnnmmmmmmmmmmmmmmmmmmmmmmmmmmmmmmmmmmmmmmmmmmmmmmmmmmmmmmmmnnnnnnnnnnnnnoooooooooopppppppppqqqqqqqrrrrrrrsssssssttttttuuuuuuvvvvvvwwwwwwxxxxxyyyyyyzzzzz++..+
(PID.TID 0000.0001) //     44 +..++zzzzzyyyyyyxxxxxxwwwwwwvvvvvvuuuuuuttttttsssssssrrrrrrrqqqqqqqqpppppppppooooooooooonnnnnnnnnnnnnnmmmmmmmmmmmmmmmmmmmmmmmmmmmmmmmmmmmmmmmmmmmmmmmmnnnnnnnnnnnnnnooooooooooopppppppppqqqqqqqqrrrrrrrsssssssttttttuuuuuuvvvvvvwwwwwwxxxxxxyyyyyyzzzzz++..+
(PID.TID 0000.0001) //     43 +..++zzzzzzyyyyyxxxxxxwwwwwwvvvvvvuuuuuuuttttttsssssssrrrrrrrrqqqqqqqqpppppppppoooooooooooonnnnnnnnnnnnnnnnnnmmmmmmmmmmmmmmmmmmmmmmmmmmmmmmmmmmnnnnnnnnnnnnnnnnnnoooooooooooopppppppppqqqqqqqqrrrrrrrrsssssssttttttuuuuuuuvvvvvvwwwwwwxxxxxxyyyyyzzzzzz++..+
(PID.TID 0000.0001) //     42 +..++zzzzzzyyyyyyxxxxxxwwwwwwvvvvvvuuuuuuuttttttssssssssrrrrrrrqqqqqqqqqppppppppppooooooooooooonnnnnnnnnnnnnnnnnnnnnnnnnmmmmmmmmmmmmnnnnnnnnnnnnnnnnnnnnnnnnnoooooooooooooppppppppppqqqqqqqqqrrrrrrrssssssssttttttuuuuuuuvvvvvvwwwwwwxxxxxxyyyyyyzzzzzz++..+
(PID.TID 0000.0001) //     41 +..++zzzzzzyyyyyyxxxxxxwwwwwwvvvvvvvuuuuuuutttttttsssssssrrrrrrrrqqqqqqqqqpppppppppppoooooooooooooonnnnnnnnnnnnnnnnnnnnnnnnnnnnnnnnnnnnnnnnnnnnnnnnnnnnnnoooooooooooooopppppppppppqqqqqqqqqrrrrrrrrssssssstttttttuuuuuuuvvvvvvvwwwwwwxxxxxxyyyyyyzzzzzz++..+
(PID.TID 0000.0001) //     40 +..++zzzzzzyyyyyyxxxxxxxwwwwwwvvvvvvvuuuuuuutttttttssssssssrrrrrrrrqqqqqqqqqqpppppppppppooooooooooooooooonnnnnnnnnnnnnnnnnnnnnnnnnnnnnnnnnnnnnnnnnnooooooooooooooooopppppppppppqqqqqqqqqqrrrrrrrrsssssssstttttttuuuuuuuvvvvvvvwwwwwwxxxxxxxyyyyyyzzzzzz++..+
(PID.TID 0000.0001) //     39 +..++zzzzzzyyyyyyyxxxxxxwwwwwwwvvvvvvvuuuuuuutttttttssssssssrrrrrrrrrqqqqqqqqqqpppppppppppppoooooooooooooooooooooonnnnnnnnnnnnnnnnnnnnnnnnoooooooooooooooooooooopppppppppppppqqqqqqqqqqrrrrrrrrrsssssssstttttttuuuuuuuvvvvvvvwwwwwwwxxxxxxyyyyyyyzzzzzz++..+
(PID.TID 0000.0001) //     38 +..++zzzzzzzyyyyyyxxxxxxxwwwwwwwvvvvvvvuuuuuuuttttttttssssssssrrrrrrrrrqqqqqqqqqqqpppppppppppppppoooooooooooooooooooooooooooooooooooooooooooooooooooooooooopppppppppppppppqqqqqqqqqqqrrrrrrrrrssssssssttttttttuuuuuuuvvvvvvvwwwwwwwxxxxxxxyyyyyyzzzzzzz++..+
(PID.TID 0000.0001) //     37 +..++zzzzzzzyyyyyyyxxxxxxwwwwwwwvvvvvvvvuuuuuuuttttttttsssssssssrrrrrrrrrrqqqqqqqqqqqqppppppppppppppppooooooooooooooooooooooooooooooooooooooooooooooooppppppppppppppppqqqqqqqqqqqqrrrrrrrrrrsssssssssttttttttuuuuuuuvvvvvvvvwwwwwwwxxxxxxyyyyyyyzzzzzzz++..+
(PID.TID 0000.0001) //     36 +..++zzzzzzzyyyyyyyxxxxxxxwwwwwwwvvvvvvvvuuuuuuutttttttttsssssssssrrrrrrrrrrrqqqqqqqqqqqqqppppppppppppppppppppooooooooooooooooooooooooooooooooppppppppppppppppppppqqqqqqqqqqqqqrrrrrrrrrrrssssssssstttttttttuuuuuuuvvvvvvvvwwwwwwwxxxxxxxyyyyyyyzzzzzzz++..+
(PID.TID 0000.0001) //     35 +..+++zzzzzzyyyyyyyyxxxxxxxwwwwwwwvvvvvvvvuuuuuuuutttttttttsssssssssrrrrrrrrrrrrqqqqqqqqqqqqqqppppppppppppppppppppppppppppppppppppppppppppppppppppppppppppppppqqqqqqqqqqqqqqrrrrrrrrrrrrssssssssstttttttttuuuuuuuuvvvvvvvvwwwwwwwxxxxxxxyyyyyyyyzzzzzz+++..+
(PID.TID 0000.0001) //     34 +..+++zzzzzzzyyyyyyyxxxxxxxwwwwwwwwvvvvvvvvuuuuuuuuttttttttttssssssssssrrrrrrrrrrrrqqqqqqqqqqqqqqqqqppppppppppppppppppppppppppppppppppppppppppppppppppppqqqqqqqqqqqqqqqqqrrrrrrrrrrrrssssssssssttttttttttuuuuuuuuvvvvvvvvwwwwwwwwxxxxxxxyyyyyyyzzzzzzz+++..+
(PID.TID 0000.0001) //     33 +..+++zzzzzzzyyyyyyyyxxxxxxxwwwwwwwwvvvvvvvvuuuuuuuuuttttttttttsssssssssssrrrrrrrrrrrrrqqqqqqqqqqqqqqqqqqqqqppppppppppppppppppppppppppppppppppppqqqqqqqqqqqqqqqqqqqqqrrrrrrrrrrrrrsssssssssssttttttttttuuuuuuuuuvvvvvvvvwwwwwwwwxxxxxxxyyyyyyyyzzzzzzz+++..+
(PID.TID 0000.0001) //     32 +..+++zzzzzzzyyyyyyyyxxxxxxxxwwwwwwwwvvvvvvvvvuuuuuuuuuttttttttttssssssssssssrrrrrrrrrrrrrrrqqqqqqqqqqqqqqqqqqqqqqqqqqqqqqqqqqqqqqqqqqqqqqqqqqqqqqqqqqqqqqqqqqqqrrrrrrrrrrrrrrrssssssssssssttttttttttuuuuuuuuuvvvvvvvvvwwwwwwwwxxxxxxxxyyyyyyyyzzzzzzz+++..+
(PID.TID 0000.0001) //     31 +..+++zzzzzzzzyyyyyyyyxxxxxxxxwwwwwwwwvvvvvvvvvuuuuuuuuuutttttttttttssssssssssssrrrrrrrrrrrrrrrrrqqqqqqqqqqqqqqqqqqqqqqqqqqqqqqqqqqqqqqqqqqqqqqqqqqqqqqqqqqrrrrrrrrrrrrrrrrrsssssssssssstttttttttttuuuuuuuuuuvvvvvvvvvwwwwwwwwxxxxxxxxyyyyyyyyzzzzzzzz+++..+
(PID.TID 0000.0001) //     30 +..+++zzzzzzzzyyyyyyyyxxxxxxxxxwwwwwwwwwvvvvvvvvvuuuuuuuuuutttttttttttssssssssssssssrrrrrrrrrrrrrrrrrrrrrqqqqqqqqqqqqqqqqqqqqqqqqqqqqqqqqqqqqqqqqqqrrrrrrrrrrrrrrrrrrrrrsssssssssssssstttttttttttuuuuuuuuuuvvvvvvvvvwwwwwwwwwxxxxxxxxxyyyyyyyyzzzzzzzz+++..+
(PID.TID 0000.0001) //     29 +..+++zzzzzzzzzyyyyyyyyxxxxxxxxxwwwwwwwwwvvvvvvvvvvuuuuuuuuuutttttttttttttsssssssssssssssrrrrrrrrrrrrrrrrrrrrrrrrrrrrrrrqqqqqqqqqqqqrrrrrrrrrrrrrrrrrrrrrrrrrrrrrrrssssssssssssssstttttttttttttuuuuuuuuuuvvvvvvvvvvwwwwwwwwwxxxxxxxxxyyyyyyyyzzzzzzzzz+++..+
(PID.TID 0000.0001) //     28 +..+++zzzzzzzzzyyyyyyyyyxxxxxxxxxwwwwwwwwwvvvvvvvvvvvuuuuuuuuuuutttttttttttttssssssssssssssssssrrrrrrrrrrrrrrrrrrrrrrrrrrrrrrrrrrrrrrrrrrrrrrrrrrrrrrrrrrrrrrsssssssssssssssssstttttttttttttuuuuuuuuuuuvvvvvvvvvvvwwwwwwwwwxxxxxxxxxyyyyyyyyyzzzzzzzzz+++..+
(PID.TID 0000.0001) //     27 +..++++zzzzzzzzzyyyyyyyyyxxxxxxxxxwwwwwwwwwwvvvvvvvvvvvuuuuuuuuuuuuttttttttttttttssssssssssssssssssssssrrrrrrrrrrrrrrrrrrrrrrrrrrrrrrrrrrrrrrrrrrrrrrssssssssssssssssssssssttttttttttttttuuuuuuuuuuuuvvvvvvvvvvvwwwwwwwwwwxxxxxxxxxyyyyyyyyyzzzzzzzzz++++..+
(PID.TID 0000.0001) //     26 +..++++zzzzzzzzzyyyyyyyyyyxxxxxxxxxwwwwwwwwwwwvvvvvvvvvvvuuuuuuuuuuuuuttttttttttttttttsssssssssssssssssssssssssssssssrrrrrrrrrrrrrrrrrrsssssssssssssssssssssssssssssssttttttttttttttttuuuuuuuuuuuuuvvvvvvvvvvvwwwwwwwwwwwxxxxxxxxxyyyyyyyyyyzzzzzzzzz++++..+
(PID.TID 0000.0001) //     25 +..++++zzzzzzzzzzyyyyyyyyyxxxxxxxxxxxwwwwwwwwwwwvvvvvvvvvvvvuuuuuuuuuuuuuuttttttttttttttttttssssssssssssssssssssssssssssssssssssssssssssssssssssssssssssssssssssttttttttttttttttttuuuuuuuuuuuuuuvvvvvvvvvvvvwwwwwwwwwwwxxxxxxxxxxxyyyyyyyyyzzzzzzzzzz++++..+
(PID.TID 0000.0001) //     24 +..++++zzzzzzzzzzyyyyyyyyyyyxxxxxxxxxxwwwwwwwwwwwwvvvvvvvvvvvvvuuuuuuuuuuuuuuutttttttttttttttttttttttsssssssssssssssssssssssssssssssssssssssssssssssssstttttttttttttttttttttttuuuuuuuuuuuuuuuvvvvvvvvvvvvvwwwwwwwwwwwwxxxxxxxxxxyyyyyyyyyyyzzzzzzzzzz++++..+
(PID.TID 0000.0001) //     23 +..++++zzzzzzzzzzzyyyyyyyyyyyxxxxxxxxxxxwwwwwwwwwwwwvvvvvvvvvvvvvvuuuuuuuuuuuuuuuuutttttttttttttttttttttttttttttttsssssssssssssssssssssssstttttttttttttttttttttttttttttttuuuuuuuuuuuuuuuuuvvvvvvvvvvvvvvwwwwwwwwwwwwxxxxxxxxxxxyyyyyyyyyyyzzzzzzzzzzz++++..+
(PID.TID 0000.0001) //     22 +..+++++zzzzzzzzzzzyyyyyyyyyyyxxxxxxxxxxxxwwwwwwwwwwwwwvvvvvvvvvvvvvvvuuuuuuuuuuuuuuuuuuuuttttttttttttttttttttttttttttttttttttttttttttttttttttttttttttttttttttttttuuuuuuuuuuuuuuuuuuuuvvvvvvvvvvvvvvvwwwwwwwwwwwwwxxxxxxxxxxxxyyyyyyyyyyyzzzzzzzzzzz+++++..+
(PID.TID 0000.0001) //     21 +..+++++zzzzzzzzzzzyyyyyyyyyyyyxxxxxxxxxxxxxwwwwwwwwwwwwwwvvvvvvvvvvvvvvvvvuuuuuuuuuuuuuuuuuuuuuuuttttttttttttttttttttttttttttttttttttttttttttttttttttttttuuuuuuuuuuuuuuuuuuuuuuuvvvvvvvvvvvvvvvvvwwwwwwwwwwwwwwxxxxxxxxxxxxxyyyyyyyyyyyyzzzzzzzzzzz+++++..+
(PID.TID 0000.0001) //     20 +..+++++zzzzzzzzzzzzyyyyyyyyyyyyyxxxxxxxxxxxxxwwwwwwwwwwwwwwwvvvvvvvvvvvvvvvvvvvuuuuuuuuuuuuuuuuuuuuuuuuuuuuuuuuuttttttttttttttttttttttttttuuuuuuuuuuuuuuuuuuuuuuuuuuuuuuuuuvvvvvvvvvvvvvvvvvvvwwwwwwwwwwwwwwwxxxxxxxxxxxxxyyyyyyyyyyyyyzzzzzzzzzzzz+++++..+
(PID.TID 0000.0001) //     19 +..++++++zzzzzzzzzzzzyyyyyyyyyyyyyyxxxxxxxxxxxxxxwwwwwwwwwwwwwwwwvvvvvvvvvvvvvvvvvvvvvvuuuuuuuuuuuuuuuuuuuuuuuuuuuuuuuuuuuuuuuuuuuuuuuuuuuuuuuuuuuuuuuuuuuuuuuuuuuuuuvvvvvvvvvvvvvvvvvvvvvvwwwwwwwwwwwwwwwwxxxxxxxxxxxxxxyyyyyyyyyyyyyyzzzzzzzzzzzz++++++..+
(PID.TID 0000.0001) //     18 +..++++++zzzzzzzzzzzzzyyyyyyyyyyyyyyyxxxxxxxxxxxxxxxwwwwwwwwwwwwwwwwwwvvvvvvvvvvvvvvvvvvvvvvvvvvuuuuuuuuuuuuuuuuuuuuuuuuuuuuuuuuuuuuuuuuuuuuuuuuuuuuuuuuuuuuvvvvvvvvvvvvvvvvvvvvvvvvvvwwwwwwwwwwwwwwwwwwxxxxxxxxxxxxxxxyyyyyyyyyyyyyyyzzzzzzzzzzzzz++++++..+
(PID.TID 0000.0001) //     17 +..++++++zzzzzzzzzzzzzzzyyyyyyyyyyyyyyyxxxxxxxxxxxxxxxxxwwwwwwwwwwwwwwwwwwwwvvvvvvvvvvvvvvvvvvvvvvvvvvvvvvvvvvvvuuuuuuuuuuuuuuuuuuuuuuuuuuuuvvvvvvvvvvvvvvvvvvvvvvvvvvvvvvvvvvvvwwwwwwwwwwwwwwwwwwwwxxxxxxxxxxxxxxxxxyyyyyyyyyyyyyyyzzzzzzzzzzzzzzz++++++..+
(PID.TID 0000.0001) //     16 +..+++++++zzzzzzzzzzzzzzzyyyyyyyyyyyyyyyyxxxxxxxxxxxxxxxxxxxwwwwwwwwwwwwwwwwwwwwwwwvvvvvvvvvvvvvvvvvvvvvvvvvvvvvvvvvvvvvvvvvvvvvvvvvvvvvvvvvvvvvvvvvvvvvvvvvvvvvvvvvvvvvvwwwwwwwwwwwwwwwwwwwwwwwxxxxxxxxxxxxxxxxxxxyyyyyyyyyyyyyyyyzzzzzzzzzzzzzzz+++++++..+
(PID.TID 0000.0001) //     15 +..+++++++zzzzzzzzzzzzzzzzzyyyyyyyyyyyyyyyyyxxxxxxxxxxxxxxxxxxxxxwwwwwwwwwwwwwwwwwwwwwwwwwwwwvvvvvvvvvvvvvvvvvvvvvvvvvvvvvvvvvvvvvvvvvvvvvvvvvvvvvvvvvvvvvvvvvvwwwwwwwwwwwwwwwwwwwwwwwwwwwwxxxxxxxxxxxxxxxxxxxxxyyyyyyyyyyyyyyyyyzzzzzzzzzzzzzzzzz+++++++..+
(PID.TID 0000.0001) //     14 +..++++++++zzzzzzzzzzzzzzzzzzyyyyyyyyyyyyyyyyyyyxxxxxxxxxxxxxxxxxxxxxxxwwwwwwwwwwwwwwwwwwwwwwwwwwwwwwwwwwwwwwwwvvvvvvvvvvvvvvvvvvvvvvvvvvvvvvwwwwwwwwwwwwwwwwwwwwwwwwwwwwwwwwwwwwwwwwxxxxxxxxxxxxxxxxxxxxxxxyyyyyyyyyyyyyyyyyyyzzzzzzzzzzzzzzzzzz++++++++..+
(PID.TID 0000.0001) //     13 +..+++++++++zzzzzzzzzzzzzzzzzzzyyyyyyyyyyyyyyyyyyyyyxxxxxxxxxxxxxxxxxxxxxxxxxxxwwwwwwwwwwwwwwwwwwwwwwwwwwwwwwwwwwwwwwwwwwwwwwwwwwwwwwwwwwwwwwwwwwwwwwwwwwwwwwwwwwwwwwwwwwwwwwxxxxxxxxxxxxxxxxxxxxxxxxxxxyyyyyyyyyyyyyyyyyyyyyzzzzzzzzzzzzzzzzzzz+++++++++..+
(PID.TID 0000.0001) //     12 +..+++++++++zzzzzzzzzzzzzzzzzzzzzyyyyyyyyyyyyyyyyyyyyyyyyxxxxxxxxxxxxxxxxxxxxxxxxxxxxxxxxxwwwwwwwwwwwwwwwwwwwwwwwwwwwwwwwwwwwwwwwwwwwwwwwwwwwwwwwwwwwwwwwwwwwwwwwwxxxxxxxxxxxxxxxxxxxxxxxxxxxxxxxxxyyyyyyyyyyyyyyyyyyyyyyyyzzzzzzzzzzzzzzzzzzzzz+++++++++..+
(PID.TID 0000.0001) //     11 +..++++++++++zzzzzzzzzzzzzzzzzzzzzzzyyyyyyyyyyyyyyyyyyyyyyyyyyyxxxxxxxxxxxxxxxxxxxxxxxxxxxxxxxxxxxxxxxxxxxxxxxxwwwwwwwwwwwwwwwwwwwwwwwwwwwwwwxxxxxxxxxxxxxxxxxxxxxxxxxxxxxxxxxxxxxxxxxxxxxxxxyyyyyyyyyyyyyyyyyyyyyyyyyyyzzzzzzzzzzzzzzzzzzzzzzz++++++++++..+
(PID.TID 0000.0001) //     10 +..++++++++++++zzzzzzzzzzzzzzzzzzzzzzzzzyyyyyyyyyyyyyyyyyyyyyyyyyyyyyyyyxxxxxxxxxxxxxxxxxxxxxxxxxxxxxxxxxxxxxxxxxxxxxxxxxxxxxxxxxxxxxxxxxxxxxxxxxxxxxxxxxxxxxxxxxxxxxxxxxxxxxxxxxxxxyyyyyyyyyyyyyyyyyyyyyyyyyyyyyyyyzzzzzzzzzzzzzzzzzzzzzzzzz++++++++++++..+
(PID.TID 0000.0001) //      9 +..+++++++++++++zzzzzzzzzzzzzzzzzzzzzzzzzzzzzyyyyyyyyyyyyyyyyyyyyyyyyyyyyyyyyyyyyyyyyxxxxxxxxxxxxxxxxxxxxxxxxxxxxxxxxxxxxxxxxxxxxxxxxxxxxxxxxxxxxxxxxxxxxxxxxxxxxxxxxxxyyyyyyyyyyyyyyyyyyyyyyyyyyyyyyyyyyyyyyyyzzzzzzzzzzzzzzzzzzzzzzzzzzzzz+++++++++++++..+
(PID.TID 0000.0001) //      8 +..+++++++++++++++zzzzzzzzzzzzzzzzzzzzzzzzzzzzzzzzzzyyyyyyyyyyyyyyyyyyyyyyyyyyyyyyyyyyyyyyyyyyyyyyyyyyyyyyyyyyyxxxxxxxxxxxxxxxxxxxxxxxxxxxxxxyyyyyyyyyyyyyyyyyyyyyyyyyyyyyyyyyyyyyyyyyyyyyyyyyyyyyyyyyyyzzzzzzzzzzzzzzzzzzzzzzzzzzzzzzzzzz+++++++++++++++..+
(PID.TID 0000.0001) //      7 +..++++++++++++++++++zzzzzzzzzzzzzzzzzzzzzzzzzzzzzzzzzzzzzzzzyyyyyyyyyyyyyyyyyyyyyyyyyyyyyyyyyyyyyyyyyyyyyyyyyyyyyyyyyyyyyyyyyyyyyyyyyyyyyyyyyyyyyyyyyyyyyyyyyyyyyyyyyyyyyyyyyyyyyyyyyyyyyyyyyyzzzzzzzzzzzzzzzzzzzzzzzzzzzzzzzzzzzzzzzz++++++++++++++++++..+
(PID.TID 0000.0001) //      6 +..+++++++++++++++++++++zzzzzzzzzzzzzzzzzzzzzzzzzzzzzzzzzzzzzzzzzzzzzzzzzzzzyyyyyyyyyyyyyyyyyyyyyyyyyyyyyyyyyyyyyyyyyyyyyyyyyyyyyyyyyyyyyyyyyyyyyyyyyyyyyyyyyyyyyyyyyyyyyyyyyyyyzzzzzzzzzzzzzzzzzzzzzzzzzzzzzzzzzzzzzzzzzzzzzzzzzzzz+++++++++++++++++++++..+
(PID.TID 0000.0001) //      5 +..++++++++++++++++++++++++++zzzzzzzzzzzzzzzzzzzzzzzzzzzzzzzzzzzzzzzzzzzzzzzzzzzzzzzzzzzzzzzzzzzzzzzzzzzzzzzzzzzyyyyyyyyyyyyyyyyyyyyyyyyyyyyzzzzzzzzzzzzzzzzzzzzzzzzzzzzzzzzzzzzzzzzzzzzzzzzzzzzzzzzzzzzzzzzzzzzzzzzzzzzzzzzzzz++++++++++++++++++++++++++..+
(PID.TID 0000.0001) //      4 +..++++++++++++++++++++++++++++++++++zzzzzzzzzzzzzzzzzzzzzzzzzzzzzzzzzzzzzzzzzzzzzzzzzzzzzzzzzzzzzzzzzzzzzzzzzzzzzzzzzzzzzzzzzzzzzzzzzzzzzzzzzzzzzzzzzzzzzzzzzzzzzzzzzzzzzzzzzzzzzzzzzzzzzzzzzzzzzzzzzzzzzzzzzzzzzzzzzz++++++++++++++++++++++++++++++++++..+
(PID.TID 0000.0001) //      3 +..++++++++++++++++++++++++++++++++++++++++++++++++++zzzzzzzzzzzzzzzzzzzzzzzzzzzzzzzzzzzzzzzzzzzzzzzzzzzzzzzzzzzzzzzzzzzzzzzzzzzzzzzzzzzzzzzzzzzzzzzzzzzzzzzzzzzzzzzzzzzzzzzzzzzzzzzzzzzzzzzzzzzzzzzzzz++++++++++++++++++++++++++++++++++++++++++++++++++..+
(PID.TID 0000.0001) //      2 ............................................................................................................................................................................................................................................................
(PID.TID 0000.0001) //      1 ............................................................................................................................................................................................................................................................
(PID.TID 0000.0001) //      0 ............................................................................................................................................................................................................................................................
(PID.TID 0000.0001) //     -1 +..++++++++++++++++++++++++++++++++++++++++++++++++++zzzzzzzzzzzzzzzzzzzzzzzzzzzzzzzzzzzzzzzzzzzzzzzzzzzzzzzzzzzzzzzzzzzzzzzzzzzzzzzzzzzzzzzzzzzzzzzzzzzzzzzzzzzzzzzzzzzzzzzzzzzzzzzzzzzzzzzzzzzzzzzzzz++++++++++++++++++++++++++++++++++++++++++++++++++..+
(PID.TID 0000.0001) // =======================================================
(PID.TID 0000.0001) // END OF FIELD                                          =
(PID.TID 0000.0001) // =======================================================
(PID.TID 0000.0001) 
(PID.TID 0000.0001) GAD_INIT_FIXED: GAD_OlMinSize=  0  0  1
(PID.TID 0000.0001) 
(PID.TID 0000.0001) // ===================================
(PID.TID 0000.0001) // GAD parameters :
(PID.TID 0000.0001) // ===================================
(PID.TID 0000.0001) tempAdvScheme =   /* Temp. Horiz.Advection scheme selector */
(PID.TID 0000.0001)                       2
(PID.TID 0000.0001)     ;
(PID.TID 0000.0001) tempVertAdvScheme =   /* Temp. Vert. Advection scheme selector */
(PID.TID 0000.0001)                       2
(PID.TID 0000.0001)     ;
(PID.TID 0000.0001) tempMultiDimAdvec =   /* use Muti-Dim Advec method for Temp */
(PID.TID 0000.0001)                   F
(PID.TID 0000.0001)     ;
(PID.TID 0000.0001) tempSOM_Advection = /* use 2nd Order Moment Advection for Temp */
(PID.TID 0000.0001)                   F
(PID.TID 0000.0001)     ;
(PID.TID 0000.0001) AdamsBashforthGt = /* apply Adams-Bashforth extrapolation on Gt */
(PID.TID 0000.0001)                   F
(PID.TID 0000.0001)     ;
(PID.TID 0000.0001) AdamsBashforth_T = /* apply Adams-Bashforth extrapolation on Temp */
(PID.TID 0000.0001)                   F
(PID.TID 0000.0001)     ;
(PID.TID 0000.0001) saltAdvScheme =   /* Salt. Horiz.advection scheme selector */
(PID.TID 0000.0001)                       2
(PID.TID 0000.0001)     ;
(PID.TID 0000.0001) saltVertAdvScheme =   /* Salt. Vert. Advection scheme selector */
(PID.TID 0000.0001)                       2
(PID.TID 0000.0001)     ;
(PID.TID 0000.0001) saltMultiDimAdvec =   /* use Muti-Dim Advec method for Salt */
(PID.TID 0000.0001)                   F
(PID.TID 0000.0001)     ;
(PID.TID 0000.0001) saltSOM_Advection = /* use 2nd Order Moment Advection for Salt */
(PID.TID 0000.0001)                   F
(PID.TID 0000.0001)     ;
(PID.TID 0000.0001) AdamsBashforthGs = /* apply Adams-Bashforth extrapolation on Gs */
(PID.TID 0000.0001)                   F
(PID.TID 0000.0001)     ;
(PID.TID 0000.0001) AdamsBashforth_S = /* apply Adams-Bashforth extrapolation on Salt */
(PID.TID 0000.0001)                   F
(PID.TID 0000.0001)     ;
(PID.TID 0000.0001) // ===================================
(PID.TID 0000.0001) %MON fCori_max                    =   9.4650000000000E-05
(PID.TID 0000.0001) %MON fCori_min                    =   6.9950000000000E-05
(PID.TID 0000.0001) %MON fCori_mean                   =   8.2300000000003E-05
(PID.TID 0000.0001) %MON fCori_sd                     =   7.1590851370829E-06
(PID.TID 0000.0001) %MON fCoriG_max                   =   9.4600000000000E-05
(PID.TID 0000.0001) %MON fCoriG_min                   =   6.9900000000000E-05
(PID.TID 0000.0001) %MON fCoriG_mean                  =   8.2250000000006E-05
(PID.TID 0000.0001) %MON fCoriG_sd                    =   7.1590851370828E-06
(PID.TID 0000.0001) %MON fCoriCos_max                 =   0.0000000000000E+00
(PID.TID 0000.0001) %MON fCoriCos_min                 =   0.0000000000000E+00
(PID.TID 0000.0001) %MON fCoriCos_mean                =   0.0000000000000E+00
(PID.TID 0000.0001) %MON fCoriCos_sd                  =   0.0000000000000E+00
(PID.TID 0000.0001) INI_CG2D: CG2D normalisation factor =  2.0001203197379843E-04
(PID.TID 0000.0001) 
(PID.TID 0000.0001) // =======================================================
(PID.TID 0000.0001) // Model configuration
(PID.TID 0000.0001) // =======================================================
(PID.TID 0000.0001) //
(PID.TID 0000.0001) // "Physical" paramters ( PARM01 in namelist )
(PID.TID 0000.0001) //
(PID.TID 0000.0001) buoyancyRelation = /* Type of relation to get Buoyancy */
(PID.TID 0000.0001)               'OCEANIC'
(PID.TID 0000.0001)     ;
(PID.TID 0000.0001) fluidIsAir   =  /* fluid major constituent is Air */
(PID.TID 0000.0001)                   F
(PID.TID 0000.0001)     ;
(PID.TID 0000.0001) fluidIsWater =  /* fluid major constituent is Water */
(PID.TID 0000.0001)                   T
(PID.TID 0000.0001)     ;
(PID.TID 0000.0001) usingPCoords =  /* use p (or p*) vertical coordinate */
(PID.TID 0000.0001)                   F
(PID.TID 0000.0001)     ;
(PID.TID 0000.0001) usingZCoords =  /* use z (or z*) vertical coordinate */
(PID.TID 0000.0001)                   T
(PID.TID 0000.0001)     ;
(PID.TID 0000.0001) tRef =   /* Reference temperature profile ( oC or K ) */
(PID.TID 0000.0001)                 2.000000000000000E+01       /* K =  1 */
(PID.TID 0000.0001)     ;
(PID.TID 0000.0001) sRef =   /* Reference salinity profile ( psu ) */
(PID.TID 0000.0001)                 3.000000000000000E+01       /* K =  1 */
(PID.TID 0000.0001)     ;
(PID.TID 0000.0001) useStrainTensionVisc= /* Use StrainTension Form of Viscous Operator */
(PID.TID 0000.0001)                   F
(PID.TID 0000.0001)     ;
(PID.TID 0000.0001) useVariableVisc = /* Use variable horizontal viscosity */
(PID.TID 0000.0001)                   F
(PID.TID 0000.0001)     ;
(PID.TID 0000.0001) useHarmonicVisc = /* Use harmonic horizontal viscosity */
(PID.TID 0000.0001)                   T
(PID.TID 0000.0001)     ;
(PID.TID 0000.0001) useBiharmonicVisc= /* Use biharmonic horiz.  viscosity */
(PID.TID 0000.0001)                   F
(PID.TID 0000.0001)     ;
(PID.TID 0000.0001) useSmag3D = /* Use isotropic 3-D Smagorinsky viscosity */
(PID.TID 0000.0001)                   F
(PID.TID 0000.0001)     ;
(PID.TID 0000.0001) viscAh  =   /* Lateral harmonic viscosity ( m^2/s ) */
(PID.TID 0000.0001)                 4.000000000000000E+02
(PID.TID 0000.0001)     ;
(PID.TID 0000.0001) viscA4  =   /* Lateral biharmonic viscosity ( m^4/s ) */
(PID.TID 0000.0001)                 0.000000000000000E+00
(PID.TID 0000.0001)     ;
(PID.TID 0000.0001) no_slip_sides =  /* Viscous BCs: No-slip sides */
(PID.TID 0000.0001)                   T
(PID.TID 0000.0001)     ;
(PID.TID 0000.0001) sideDragFactor = /* side-drag scaling factor (non-dim) */
(PID.TID 0000.0001)                 2.000000000000000E+00
(PID.TID 0000.0001)     ;
(PID.TID 0000.0001) viscArNr = /* vertical profile of vertical viscosity ( m^2/s )*/
(PID.TID 0000.0001)                 0.000000000000000E+00       /* K =  1 */
(PID.TID 0000.0001)     ;
(PID.TID 0000.0001) no_slip_bottom =  /* Viscous BCs: No-slip bottom */
(PID.TID 0000.0001)                   T
(PID.TID 0000.0001)     ;
(PID.TID 0000.0001) bottomVisc_pCell = /* Partial-cell in bottom Visc. BC */
(PID.TID 0000.0001)                   F
(PID.TID 0000.0001)     ;
(PID.TID 0000.0001) bottomDragLinear = /* linear bottom-drag coefficient ( m/s ) */
(PID.TID 0000.0001)                 0.000000000000000E+00
(PID.TID 0000.0001)     ;
(PID.TID 0000.0001) bottomDragQuadratic = /* quadratic bottom-drag coefficient (-) */
(PID.TID 0000.0001)                 0.000000000000000E+00
(PID.TID 0000.0001)     ;
(PID.TID 0000.0001) selectBotDragQuadr = /* select quadratic bottom drag options */
(PID.TID 0000.0001)                      -1
(PID.TID 0000.0001)     ;
(PID.TID 0000.0001) diffKhT =   /* Laplacian diffusion of heat laterally ( m^2/s ) */
(PID.TID 0000.0001)                 0.000000000000000E+00
(PID.TID 0000.0001)     ;
(PID.TID 0000.0001) diffK4T =   /* Biharmonic diffusion of heat laterally ( m^4/s ) */
(PID.TID 0000.0001)                 0.000000000000000E+00
(PID.TID 0000.0001)     ;
(PID.TID 0000.0001) diffKhS =   /* Laplacian diffusion of salt laterally ( m^2/s ) */
(PID.TID 0000.0001)                 0.000000000000000E+00
(PID.TID 0000.0001)     ;
(PID.TID 0000.0001) diffK4S =   /* Biharmonic diffusion of salt laterally ( m^4/s ) */
(PID.TID 0000.0001)                 0.000000000000000E+00
(PID.TID 0000.0001)     ;
(PID.TID 0000.0001) diffKrNrT = /* vertical profile of vertical diffusion of Temp ( m^2/s )*/
(PID.TID 0000.0001)                 0.000000000000000E+00       /* K =  1 */
(PID.TID 0000.0001)     ;
(PID.TID 0000.0001) diffKrNrS = /* vertical profile of vertical diffusion of Salt ( m^2/s )*/
(PID.TID 0000.0001)                 0.000000000000000E+00       /* K =  1 */
(PID.TID 0000.0001)     ;
(PID.TID 0000.0001) diffKrBL79surf = /* Surface diffusion for Bryan and Lewis 79 ( m^2/s ) */
(PID.TID 0000.0001)                 0.000000000000000E+00
(PID.TID 0000.0001)     ;
(PID.TID 0000.0001) diffKrBL79deep = /* Deep diffusion for Bryan and Lewis 1979 ( m^2/s ) */
(PID.TID 0000.0001)                 0.000000000000000E+00
(PID.TID 0000.0001)     ;
(PID.TID 0000.0001) diffKrBL79scl = /* Depth scale for Bryan and Lewis 1979 ( m ) */
(PID.TID 0000.0001)                 2.000000000000000E+02
(PID.TID 0000.0001)     ;
(PID.TID 0000.0001) diffKrBL79Ho = /* Turning depth for Bryan and Lewis 1979 ( m ) */
(PID.TID 0000.0001)                -2.000000000000000E+03
(PID.TID 0000.0001)     ;
(PID.TID 0000.0001) ivdc_kappa = /* Implicit Vertical Diffusivity for Convection ( m^2/s) */
(PID.TID 0000.0001)                 0.000000000000000E+00
(PID.TID 0000.0001)     ;
(PID.TID 0000.0001) hMixCriteria=  /* Criteria for mixed-layer diagnostic */
(PID.TID 0000.0001)                -8.000000000000000E-01
(PID.TID 0000.0001)     ;
(PID.TID 0000.0001) dRhoSmall =  /* Parameter for mixed-layer diagnostic */
(PID.TID 0000.0001)                 1.000000000000000E-06
(PID.TID 0000.0001)     ;
(PID.TID 0000.0001) hMixSmooth=  /* Smoothing parameter for mixed-layer diagnostic */
(PID.TID 0000.0001)                 0.000000000000000E+00
(PID.TID 0000.0001)     ;
(PID.TID 0000.0001) eosType =  /* Type of Equation of State */
(PID.TID 0000.0001)               'LINEAR'
(PID.TID 0000.0001)     ;
(PID.TID 0000.0001) tAlpha = /* Linear EOS thermal expansion coefficient ( 1/oC ) */
(PID.TID 0000.0001)                 2.000000000000000E-04
(PID.TID 0000.0001)     ;
(PID.TID 0000.0001) sBeta  = /* Linear EOS haline contraction coefficient ( 1/psu ) */
(PID.TID 0000.0001)                 7.400000000000000E-04
(PID.TID 0000.0001)     ;
(PID.TID 0000.0001) rhoNil    = /* Reference density for Linear EOS ( kg/m^3 ) */
(PID.TID 0000.0001)                 9.998000000000000E+02
(PID.TID 0000.0001)     ;
(PID.TID 0000.0001) selectP_inEOS_Zc = /* select pressure to use in EOS (0,1,2,3) */
(PID.TID 0000.0001)                       0
(PID.TID 0000.0001)     0= -g*rhoConst*z ; 1= pRef (from tRef,sRef); 2= Hyd P ; 3= Hyd+NH P
(PID.TID 0000.0001)     ;
(PID.TID 0000.0001) surf_pRef = /* Surface reference pressure ( Pa ) */
(PID.TID 0000.0001)                 1.013250000000000E+05
(PID.TID 0000.0001)     ;
(PID.TID 0000.0001) HeatCapacity_Cp =  /* Specific heat capacity ( J/kg/K ) */
(PID.TID 0000.0001)                 3.994000000000000E+03
(PID.TID 0000.0001)     ;
(PID.TID 0000.0001) celsius2K = /* 0 degree Celsius converted to Kelvin ( K ) */
(PID.TID 0000.0001)                 2.731500000000000E+02
(PID.TID 0000.0001)     ;
(PID.TID 0000.0001) rhoConst  = /* Reference density (Boussinesq)  ( kg/m^3 ) */
(PID.TID 0000.0001)                 1.027000000000000E+03
(PID.TID 0000.0001)     ;
(PID.TID 0000.0001) rhoFacC = /* normalized Reference density @ cell-Center (-) */
(PID.TID 0000.0001)                 1.000000000000000E+00       /* K =  1 */
(PID.TID 0000.0001)     ;
(PID.TID 0000.0001) rhoFacF = /* normalized Reference density @ W-Interface (-) */
(PID.TID 0000.0001)     2 @  1.000000000000000E+00              /* K =  1:  2 */
(PID.TID 0000.0001)     ;
(PID.TID 0000.0001) rhoConstFresh = /* Fresh-water reference density ( kg/m^3 ) */
(PID.TID 0000.0001)                 1.027000000000000E+03
(PID.TID 0000.0001)     ;
(PID.TID 0000.0001) gravity =   /* Gravitational acceleration ( m/s^2 ) */
(PID.TID 0000.0001)                 9.810000000000000E+00
(PID.TID 0000.0001)     ;
(PID.TID 0000.0001) gBaro =   /* Barotropic gravity ( m/s^2 ) */
(PID.TID 0000.0001)                 9.810000000000000E+00
(PID.TID 0000.0001)     ;
(PID.TID 0000.0001) gravFacC = /* gravity factor (vs surf.) @ cell-Center (-) */
(PID.TID 0000.0001)                 1.000000000000000E+00       /* K =  1 */
(PID.TID 0000.0001)     ;
(PID.TID 0000.0001) gravFacF = /* gravity factor (vs surf.) @ W-Interface (-) */
(PID.TID 0000.0001)     2 @  1.000000000000000E+00              /* K =  1:  2 */
(PID.TID 0000.0001)     ;
(PID.TID 0000.0001) rotationPeriod =   /* Rotation Period ( s ) */
(PID.TID 0000.0001)                 8.616400000000000E+04
(PID.TID 0000.0001)     ;
(PID.TID 0000.0001) omega =   /* Angular velocity ( rad/s ) */
(PID.TID 0000.0001)                 7.292123516990375E-05
(PID.TID 0000.0001)     ;
(PID.TID 0000.0001) f0 =   /* Reference coriolis parameter ( 1/s ) */
(PID.TID 0000.0001)                 6.999999999999999E-05
(PID.TID 0000.0001)     ;
(PID.TID 0000.0001) beta =   /* Beta ( 1/(m.s) ) */
(PID.TID 0000.0001)                 2.000000000000000E-11
(PID.TID 0000.0001)     ;
(PID.TID 0000.0001) fPrime =   /* Second coriolis parameter ( 1/s ) */
(PID.TID 0000.0001)                 0.000000000000000E+00
(PID.TID 0000.0001)     ;
(PID.TID 0000.0001) rigidLid =   /* Rigid lid on/off flag */
(PID.TID 0000.0001)                   F
(PID.TID 0000.0001)     ;
(PID.TID 0000.0001) implicitFreeSurface =   /* Implicit free surface on/off flag */
(PID.TID 0000.0001)                   T
(PID.TID 0000.0001)     ;
(PID.TID 0000.0001) freeSurfFac =   /* Implicit free surface factor */
(PID.TID 0000.0001)                 1.000000000000000E+00
(PID.TID 0000.0001)     ;
(PID.TID 0000.0001) implicSurfPress =  /* Surface Pressure implicit factor (0-1)*/
(PID.TID 0000.0001)                 1.000000000000000E+00
(PID.TID 0000.0001)     ;
(PID.TID 0000.0001) implicDiv2DFlow =  /* Barot. Flow Div. implicit factor (0-1)*/
(PID.TID 0000.0001)                 1.000000000000000E+00
(PID.TID 0000.0001)     ;
(PID.TID 0000.0001) uniformLin_PhiSurf = /* use uniform Bo_surf on/off flag*/
(PID.TID 0000.0001)                   T
(PID.TID 0000.0001)     ;
(PID.TID 0000.0001) uniformFreeSurfLev = /* free-surface level-index is uniform */
(PID.TID 0000.0001)                   T
(PID.TID 0000.0001)     ;
(PID.TID 0000.0001) hFacMin =   /* minimum partial cell factor (hFac) */
(PID.TID 0000.0001)                 1.000000000000000E-01
(PID.TID 0000.0001)     ;
(PID.TID 0000.0001) hFacMinDr = /* minimum partial cell thickness ( m) */
(PID.TID 0000.0001)                 0.000000000000000E+00
(PID.TID 0000.0001)     ;
(PID.TID 0000.0001) exactConserv =  /* Exact Volume Conservation on/off flag*/
(PID.TID 0000.0001)                   F
(PID.TID 0000.0001)     ;
(PID.TID 0000.0001) linFSConserveTr = /* Tracer correction for Lin Free Surface on/off flag*/
(PID.TID 0000.0001)                   F
(PID.TID 0000.0001)     ;
(PID.TID 0000.0001) nonlinFreeSurf = /* Non-linear Free Surf. options (-1,0,1,2,3)*/
(PID.TID 0000.0001)                       0
(PID.TID 0000.0001)      -1,0= Off ; 1,2,3= On, 2=+rescale gU,gV, 3=+update cg2d solv.
(PID.TID 0000.0001)     ;
(PID.TID 0000.0001) hFacInf =   /* lower threshold for hFac (nonlinFreeSurf only)*/
(PID.TID 0000.0001)                 2.000000000000000E-01
(PID.TID 0000.0001)     ;
(PID.TID 0000.0001) hFacSup =   /* upper threshold for hFac (nonlinFreeSurf only)*/
(PID.TID 0000.0001)                 2.000000000000000E+00
(PID.TID 0000.0001)     ;
(PID.TID 0000.0001) select_rStar = /* r* Vertical coord. options (=0 r coord.; >0 uses r*)*/
(PID.TID 0000.0001)                       0
(PID.TID 0000.0001)     ;
(PID.TID 0000.0001) useRealFreshWaterFlux = /* Real Fresh Water Flux on/off flag*/
(PID.TID 0000.0001)                   F
(PID.TID 0000.0001)     ;
(PID.TID 0000.0001) temp_EvPrRn = /* Temp. of Evap/Prec/R (UNSET=use local T)(oC)*/
(PID.TID 0000.0001)                 1.234567000000000E+05
(PID.TID 0000.0001)     ;
(PID.TID 0000.0001) salt_EvPrRn = /* Salin. of Evap/Prec/R (UNSET=use local S)(psu)*/
(PID.TID 0000.0001)                 0.000000000000000E+00
(PID.TID 0000.0001)     ;
(PID.TID 0000.0001) selectAddFluid = /* option for mass source/sink of fluid (=0: off) */
(PID.TID 0000.0001)                       0
(PID.TID 0000.0001)     ;
(PID.TID 0000.0001) temp_addMass = /* Temp. of addMass array (UNSET=use local T)(oC)*/
(PID.TID 0000.0001)                 1.234567000000000E+05
(PID.TID 0000.0001)     ;
(PID.TID 0000.0001) salt_addMass = /* Salin. of addMass array (UNSET=use local S)(psu)*/
(PID.TID 0000.0001)                 0.000000000000000E+00
(PID.TID 0000.0001)     ;
(PID.TID 0000.0001) convertFW2Salt = /* convert F.W. Flux to Salt Flux (-1=use local S)(psu)*/
(PID.TID 0000.0001)                 3.500000000000000E+01
(PID.TID 0000.0001)     ;
(PID.TID 0000.0001) use3Dsolver = /* use 3-D pressure solver on/off flag */
(PID.TID 0000.0001)                   F
(PID.TID 0000.0001)     ;
(PID.TID 0000.0001) nonHydrostatic =  /* Non-Hydrostatic on/off flag */
(PID.TID 0000.0001)                   F
(PID.TID 0000.0001)     ;
(PID.TID 0000.0001) nh_Am2 = /* Non-Hydrostatic terms scaling factor */
(PID.TID 0000.0001)                 1.000000000000000E+00
(PID.TID 0000.0001)     ;
(PID.TID 0000.0001) implicitNHPress = /* Non-Hyd Pressure implicit factor (0-1)*/
(PID.TID 0000.0001)                 1.000000000000000E+00
(PID.TID 0000.0001)     ;
(PID.TID 0000.0001) selectNHfreeSurf = /* Non-Hyd (free-)Surface option */
(PID.TID 0000.0001)                       0
(PID.TID 0000.0001)     ;
(PID.TID 0000.0001) quasiHydrostatic = /* Quasi-Hydrostatic on/off flag */
(PID.TID 0000.0001)                   F
(PID.TID 0000.0001)     ;
(PID.TID 0000.0001) calc_wVelocity = /* vertical velocity calculation on/off flag */
(PID.TID 0000.0001)                   T
(PID.TID 0000.0001)     ;
(PID.TID 0000.0001) momStepping =  /* Momentum equation on/off flag */
(PID.TID 0000.0001)                   T
(PID.TID 0000.0001)     ;
(PID.TID 0000.0001) vectorInvariantMomentum= /* Vector-Invariant Momentum on/off */
(PID.TID 0000.0001)                   F
(PID.TID 0000.0001)     ;
(PID.TID 0000.0001) momAdvection =  /* Momentum advection on/off flag */
(PID.TID 0000.0001)                   T
(PID.TID 0000.0001)     ;
(PID.TID 0000.0001) momViscosity =  /* Momentum viscosity on/off flag */
(PID.TID 0000.0001)                   T
(PID.TID 0000.0001)     ;
(PID.TID 0000.0001) momImplVertAdv= /* Momentum implicit vert. advection on/off*/
(PID.TID 0000.0001)                   F
(PID.TID 0000.0001)     ;
(PID.TID 0000.0001) implicitViscosity = /* Implicit viscosity on/off flag */
(PID.TID 0000.0001)                   F
(PID.TID 0000.0001)     ;
(PID.TID 0000.0001) selectImplicitDrag= /* Implicit bot Drag options (0,1,2)*/
(PID.TID 0000.0001)                       0
(PID.TID 0000.0001)     0= Expl. ; 1= Impl. on provis. Vel ; 2= Fully Impl (with surf.P)
(PID.TID 0000.0001)     ;
(PID.TID 0000.0001) metricTerms =  /* metric-Terms on/off flag */
(PID.TID 0000.0001)                   F
(PID.TID 0000.0001)     ;
(PID.TID 0000.0001) useNHMTerms = /* Non-Hydrostatic Metric-Terms on/off */
(PID.TID 0000.0001)                   F
(PID.TID 0000.0001)     ;
(PID.TID 0000.0001) selectCoriMap = /* Coriolis Map options (0,1,2,3)*/
(PID.TID 0000.0001)                       1
(PID.TID 0000.0001)     0= f-Plane ; 1= Beta-Plane ; 2= Spherical ; 3= read from file
(PID.TID 0000.0001)     ;
(PID.TID 0000.0001) use3dCoriolis = /* 3-D Coriolis on/off flag */
(PID.TID 0000.0001)                   F
(PID.TID 0000.0001)     ;
(PID.TID 0000.0001) useCoriolis =  /* Coriolis on/off flag */
(PID.TID 0000.0001)                   T
(PID.TID 0000.0001)     ;
(PID.TID 0000.0001) useCDscheme =  /* CD scheme on/off flag */
(PID.TID 0000.0001)                   F
(PID.TID 0000.0001)     ;
(PID.TID 0000.0001) selectCoriScheme= /* Scheme selector for Coriolis-Term */
(PID.TID 0000.0001)                       0
(PID.TID 0000.0001)    = 0 : original discretization (simple averaging, no hFac)
(PID.TID 0000.0001)    = 1 : Wet-point averaging (Jamar & Ozer 1986)
(PID.TID 0000.0001)    = 2 : energy conserving scheme (no hFac weight)
(PID.TID 0000.0001)    = 3 : energy conserving scheme using Wet-point averaging
(PID.TID 0000.0001)     ;
(PID.TID 0000.0001) momForcing =  /* Momentum forcing on/off flag */
(PID.TID 0000.0001)                   T
(PID.TID 0000.0001)     ;
(PID.TID 0000.0001) momTidalForcing = /* Momentum Tidal forcing on/off flag */
(PID.TID 0000.0001)                   T
(PID.TID 0000.0001)     ;
(PID.TID 0000.0001) momPressureForcing =  /* Momentum pressure term on/off flag */
(PID.TID 0000.0001)                   T
(PID.TID 0000.0001)     ;
(PID.TID 0000.0001) implicitIntGravWave= /* Implicit Internal Gravity Wave flag */
(PID.TID 0000.0001)                   F
(PID.TID 0000.0001)     ;
(PID.TID 0000.0001) staggerTimeStep =    /* Stagger time stepping on/off flag */
(PID.TID 0000.0001)                   F
(PID.TID 0000.0001)     ;
(PID.TID 0000.0001) doResetHFactors = /* reset thickness factors @ each time-step */
(PID.TID 0000.0001)                   F
(PID.TID 0000.0001)     ;
(PID.TID 0000.0001) multiDimAdvection =  /* enable/disable Multi-Dim Advection */
(PID.TID 0000.0001)                   T
(PID.TID 0000.0001)     ;
(PID.TID 0000.0001) useMultiDimAdvec =   /* Multi-Dim Advection is/is-not used */
(PID.TID 0000.0001)                   F
(PID.TID 0000.0001)     ;
(PID.TID 0000.0001) implicitDiffusion = /* Implicit Diffusion on/off flag */
(PID.TID 0000.0001)                   F
(PID.TID 0000.0001)     ;
(PID.TID 0000.0001) tempStepping =  /* Temperature equation on/off flag */
(PID.TID 0000.0001)                   F
(PID.TID 0000.0001)     ;
(PID.TID 0000.0001) tempAdvection = /* Temperature advection on/off flag */
(PID.TID 0000.0001)                   F
(PID.TID 0000.0001)     ;
(PID.TID 0000.0001) tempImplVertAdv = /* Temp. implicit vert. advection on/off */
(PID.TID 0000.0001)                   F
(PID.TID 0000.0001)     ;
(PID.TID 0000.0001) tempForcing  =  /* Temperature forcing on/off flag */
(PID.TID 0000.0001)                   F
(PID.TID 0000.0001)     ;
(PID.TID 0000.0001) doThetaClimRelax = /* apply SST relaxation on/off flag */
(PID.TID 0000.0001)                   F
(PID.TID 0000.0001)     ;
(PID.TID 0000.0001) tempIsActiveTr = /* Temp. is a dynamically Active Tracer */
(PID.TID 0000.0001)                   F
(PID.TID 0000.0001)     ;
(PID.TID 0000.0001) saltStepping =  /* Salinity equation on/off flag */
(PID.TID 0000.0001)                   F
(PID.TID 0000.0001)     ;
(PID.TID 0000.0001) saltAdvection = /* Salinity advection on/off flag */
(PID.TID 0000.0001)                   F
(PID.TID 0000.0001)     ;
(PID.TID 0000.0001) saltImplVertAdv = /* Sali. implicit vert. advection on/off */
(PID.TID 0000.0001)                   F
(PID.TID 0000.0001)     ;
(PID.TID 0000.0001) saltForcing  =  /* Salinity forcing on/off flag */
(PID.TID 0000.0001)                   F
(PID.TID 0000.0001)     ;
(PID.TID 0000.0001) doSaltClimRelax = /* apply SSS relaxation on/off flag */
(PID.TID 0000.0001)                   F
(PID.TID 0000.0001)     ;
(PID.TID 0000.0001) saltIsActiveTr = /* Salt  is a dynamically Active Tracer */
(PID.TID 0000.0001)                   F
(PID.TID 0000.0001)     ;
(PID.TID 0000.0001)  readBinaryPrec = /* Precision used for reading binary files */
(PID.TID 0000.0001)                      32
(PID.TID 0000.0001)     ;
(PID.TID 0000.0001) writeBinaryPrec = /* Precision used for writing binary files */
(PID.TID 0000.0001)                      32
(PID.TID 0000.0001)     ;
(PID.TID 0000.0001)  rwSuffixType =   /* select format of mds file suffix */
(PID.TID 0000.0001)                       0
(PID.TID 0000.0001)    = 0 : myIter (I10.10) ;   = 1 : 100*myTime (100th sec) ;
(PID.TID 0000.0001)    = 2 : myTime (seconds);   = 3 : myTime/360 (10th of hr);
(PID.TID 0000.0001)    = 4 : myTime/3600 (hours)
(PID.TID 0000.0001)     ;
(PID.TID 0000.0001)  globalFiles = /* write "global" (=not per tile) files */
(PID.TID 0000.0001)                   F
(PID.TID 0000.0001)     ;
(PID.TID 0000.0001)  useSingleCpuIO = /* only master MPI process does I/O */
(PID.TID 0000.0001)                   T
(PID.TID 0000.0001)     ;
(PID.TID 0000.0001)  useSingleCpuInput = /* only master process reads input */
(PID.TID 0000.0001)                   T
(PID.TID 0000.0001)     ;
(PID.TID 0000.0001) /* debLev[*]  : level of debug & auxiliary message printing */
(PID.TID 0000.0001) debLevZero =  0 ; /* level of disabled aux. msg printing */
(PID.TID 0000.0001)    debLevA =  1 ; /* level of minimum  aux. msg printing */
(PID.TID 0000.0001)    debLevB =  2 ; /* level of low aux. print (report read-file opening)*/
(PID.TID 0000.0001)    debLevC =  3 ; /* level of moderate debug prt (most pkgs debug msg) */
(PID.TID 0000.0001)    debLevD =  4 ; /* level of enhanced debug prt (add DEBUG_STATS prt) */
(PID.TID 0000.0001)    debLevE =  5 ; /* level of extensive debug printing */
(PID.TID 0000.0001) debugLevel =  /* select debug printing level */
(PID.TID 0000.0001)                       2
(PID.TID 0000.0001)     ;
(PID.TID 0000.0001)  plotLevel =  /* select PLOT_FIELD printing level */
(PID.TID 0000.0001)                       2
(PID.TID 0000.0001)     ;
(PID.TID 0000.0001) //
(PID.TID 0000.0001) // Elliptic solver(s) paramters ( PARM02 in namelist )
(PID.TID 0000.0001) //
(PID.TID 0000.0001) cg2dMaxIters =   /* Upper limit on 2d con. grad iterations  */
(PID.TID 0000.0001)                    1000
(PID.TID 0000.0001)     ;
(PID.TID 0000.0001) cg2dChkResFreq =   /* 2d con. grad convergence test frequency */
(PID.TID 0000.0001)                       1
(PID.TID 0000.0001)     ;
(PID.TID 0000.0001) cg2dUseMinResSol= /* use cg2d last-iter(=0) / min-resid.(=1) solution */
(PID.TID 0000.0001)                       0
(PID.TID 0000.0001)     ;
(PID.TID 0000.0001) cg2dTargetResidual =   /* 2d con. grad target residual  */
(PID.TID 0000.0001)                 1.000000000000000E-07
(PID.TID 0000.0001)     ;
(PID.TID 0000.0001) cg2dTargetResWunit =   /* CG2d target residual [W units] */
(PID.TID 0000.0001)                -1.000000000000000E+00
(PID.TID 0000.0001)     ;
(PID.TID 0000.0001) cg2dPreCondFreq =   /* Freq. for updating cg2d preconditioner */
(PID.TID 0000.0001)                       1
(PID.TID 0000.0001)     ;
(PID.TID 0000.0001) useSRCGSolver =  /* use single reduction CG solver(s) */
(PID.TID 0000.0001)                   F
(PID.TID 0000.0001)     ;
(PID.TID 0000.0001) printResidualFreq = /* Freq. for printing CG residual */
(PID.TID 0000.0001)                       0
(PID.TID 0000.0001)     ;
(PID.TID 0000.0001) //
(PID.TID 0000.0001) // Time stepping paramters ( PARM03 in namelist )
(PID.TID 0000.0001) //
(PID.TID 0000.0001) deltaTMom =   /* Momentum equation timestep ( s ) */
(PID.TID 0000.0001)                 5.400000000000000E+03
(PID.TID 0000.0001)     ;
(PID.TID 0000.0001) deltaTFreeSurf = /* FreeSurface equation timestep ( s ) */
(PID.TID 0000.0001)                 5.400000000000000E+03
(PID.TID 0000.0001)     ;
(PID.TID 0000.0001) dTtracerLev =  /* Tracer equation timestep ( s ) */
(PID.TID 0000.0001)                 5.400000000000000E+03       /* K =  1 */
(PID.TID 0000.0001)     ;
(PID.TID 0000.0001) deltaTClock  =   /* Model clock timestep ( s ) */
(PID.TID 0000.0001)                 5.400000000000000E+03
(PID.TID 0000.0001)     ;
(PID.TID 0000.0001) cAdjFreq =   /* Convective adjustment interval ( s ) */
(PID.TID 0000.0001)                 0.000000000000000E+00
(PID.TID 0000.0001)     ;
(PID.TID 0000.0001) momForcingOutAB = /* =1: take Momentum Forcing out of Adams-Bash. stepping */
(PID.TID 0000.0001)                       0
(PID.TID 0000.0001)     ;
(PID.TID 0000.0001) tracForcingOutAB = /* =1: take T,S,pTr Forcing out of Adams-Bash. stepping */
(PID.TID 0000.0001)                       0
(PID.TID 0000.0001)     ;
(PID.TID 0000.0001) momDissip_In_AB = /* put Dissipation Tendency in Adams-Bash. stepping */
(PID.TID 0000.0001)                   T
(PID.TID 0000.0001)     ;
(PID.TID 0000.0001) doAB_onGtGs = /* apply AB on Tendencies (rather than on T,S)*/
(PID.TID 0000.0001)                   T
(PID.TID 0000.0001)     ;
(PID.TID 0000.0001) abEps =   /* Adams-Bashforth-2 stabilizing weight */
(PID.TID 0000.0001)                 1.000000000000000E-02
(PID.TID 0000.0001)     ;
(PID.TID 0000.0001) applyExchUV_early = /* Apply EXCH to U,V earlier in time-step */
(PID.TID 0000.0001)                   F
(PID.TID 0000.0001)     ;
(PID.TID 0000.0001) pickupStrictlyMatch= /* stop if pickup do not strictly match */
(PID.TID 0000.0001)                   T
(PID.TID 0000.0001)     ;
(PID.TID 0000.0001) nIter0   =   /* Run starting timestep number */
(PID.TID 0000.0001)                       0
(PID.TID 0000.0001)     ;
(PID.TID 0000.0001) nTimeSteps = /* Number of timesteps */
(PID.TID 0000.0001)                     100
(PID.TID 0000.0001)     ;
(PID.TID 0000.0001) nEndIter =   /* Run ending timestep number */
(PID.TID 0000.0001)                     100
(PID.TID 0000.0001)     ;
(PID.TID 0000.0001) baseTime =   /* Model base time ( s ) */
(PID.TID 0000.0001)                 0.000000000000000E+00
(PID.TID 0000.0001)     ;
(PID.TID 0000.0001) startTime =  /* Run start time ( s ) */
(PID.TID 0000.0001)                 0.000000000000000E+00
(PID.TID 0000.0001)     ;
(PID.TID 0000.0001) endTime  =   /* Integration ending time ( s ) */
(PID.TID 0000.0001)                 5.400000000000000E+05
(PID.TID 0000.0001)     ;
(PID.TID 0000.0001) pChkPtFreq = /* Permanent restart/pickup file interval ( s ) */
(PID.TID 0000.0001)                 3.110400000000000E+07
(PID.TID 0000.0001)     ;
(PID.TID 0000.0001) chkPtFreq  = /* Rolling restart/pickup file interval ( s ) */
(PID.TID 0000.0001)                 2.592000000000000E+07
(PID.TID 0000.0001)     ;
(PID.TID 0000.0001) pickup_write_mdsio =   /* Model IO flag. */
(PID.TID 0000.0001)                   T
(PID.TID 0000.0001)     ;
(PID.TID 0000.0001) pickup_read_mdsio =   /* Model IO flag. */
(PID.TID 0000.0001)                   T
(PID.TID 0000.0001)     ;
(PID.TID 0000.0001) writePickupAtEnd =   /* Model IO flag. */
(PID.TID 0000.0001)                   T
(PID.TID 0000.0001)     ;
(PID.TID 0000.0001) dumpFreq =   /* Model state write out interval ( s ). */
(PID.TID 0000.0001)                 8.640000000000000E+05
(PID.TID 0000.0001)     ;
(PID.TID 0000.0001) dumpInitAndLast= /* write out Initial & Last iter. model state */
(PID.TID 0000.0001)                   T
(PID.TID 0000.0001)     ;
(PID.TID 0000.0001) snapshot_mdsio =   /* Model IO flag. */
(PID.TID 0000.0001)                   T
(PID.TID 0000.0001)     ;
(PID.TID 0000.0001) monitorFreq =   /* Monitor output interval ( s ). */
(PID.TID 0000.0001)                 8.640000000000000E+04
(PID.TID 0000.0001)     ;
(PID.TID 0000.0001) monitorSelect = /* select group of variables to monitor */
(PID.TID 0000.0001)                       2
(PID.TID 0000.0001)     ;
(PID.TID 0000.0001) monitor_stdio =   /* Model IO flag. */
(PID.TID 0000.0001)                   T
(PID.TID 0000.0001)     ;
(PID.TID 0000.0001) externForcingPeriod =   /* forcing period (s) */
(PID.TID 0000.0001)                 0.000000000000000E+00
(PID.TID 0000.0001)     ;
(PID.TID 0000.0001) externForcingCycle =   /* period of the cyle (s). */
(PID.TID 0000.0001)                 0.000000000000000E+00
(PID.TID 0000.0001)     ;
(PID.TID 0000.0001) tauThetaClimRelax =   /* relaxation time scale (s) */
(PID.TID 0000.0001)                 0.000000000000000E+00
(PID.TID 0000.0001)     ;
(PID.TID 0000.0001) tauSaltClimRelax =   /* relaxation time scale (s) */
(PID.TID 0000.0001)                 0.000000000000000E+00
(PID.TID 0000.0001)     ;
(PID.TID 0000.0001) latBandClimRelax =   /* max. Lat. where relaxation */
(PID.TID 0000.0001)                 3.720000000000000E+06
(PID.TID 0000.0001)     ;
(PID.TID 0000.0001) //
(PID.TID 0000.0001) // Gridding paramters ( PARM04 in namelist )
(PID.TID 0000.0001) //
(PID.TID 0000.0001) usingCartesianGrid = /* Cartesian coordinates flag ( True/False ) */
(PID.TID 0000.0001)                   T
(PID.TID 0000.0001)     ;
(PID.TID 0000.0001) usingCylindricalGrid = /* Cylindrical coordinates flag ( True/False ) */
(PID.TID 0000.0001)                   F
(PID.TID 0000.0001)     ;
(PID.TID 0000.0001) usingSphericalPolarGrid = /* Spherical coordinates flag ( True/False ) */
(PID.TID 0000.0001)                   F
(PID.TID 0000.0001)     ;
(PID.TID 0000.0001) usingCurvilinearGrid = /* Curvilinear coordinates flag ( True/False ) */
(PID.TID 0000.0001)                   F
(PID.TID 0000.0001)     ;
(PID.TID 0000.0001) useMin4hFacEdges = /* set hFacW,S as minimum of adjacent hFacC factor */
(PID.TID 0000.0001)                   F
(PID.TID 0000.0001)     ;
(PID.TID 0000.0001) interViscAr_pCell = /* account for partial-cell in interior vert. viscosity */
(PID.TID 0000.0001)                   F
(PID.TID 0000.0001)     ;
(PID.TID 0000.0001) interDiffKr_pCell = /* account for partial-cell in interior vert. diffusion */
(PID.TID 0000.0001)                   F
(PID.TID 0000.0001)     ;
(PID.TID 0000.0001) pCellMix_select = /* option to enhance mixing near surface & bottom */
(PID.TID 0000.0001)                       0
(PID.TID 0000.0001)     ;
(PID.TID 0000.0001) selectSigmaCoord = /* Hybrid-Sigma Vert. Coordinate option */
(PID.TID 0000.0001)                       0
(PID.TID 0000.0001)     ;
(PID.TID 0000.0001) rSigmaBnd = /* r/sigma transition ( units of r ==  m ) */
(PID.TID 0000.0001)                 1.234567000000000E+05
(PID.TID 0000.0001)     ;
(PID.TID 0000.0001) rkSign =   /* index orientation relative to vertical coordinate */
(PID.TID 0000.0001)                -1.000000000000000E+00
(PID.TID 0000.0001)     ;
(PID.TID 0000.0001) gravitySign = /* gravity orientation relative to vertical coordinate */
(PID.TID 0000.0001)                -1.000000000000000E+00
(PID.TID 0000.0001)     ;
(PID.TID 0000.0001) seaLev_Z =  /* reference height of sea-level [m] */
(PID.TID 0000.0001)                 0.000000000000000E+00
(PID.TID 0000.0001)     ;
(PID.TID 0000.0001) top_Pres =  /* reference pressure at the top [Pa] */
(PID.TID 0000.0001)                 0.000000000000000E+00
(PID.TID 0000.0001)     ;
(PID.TID 0000.0001) mass2rUnit = /* convert mass per unit area [kg/m2] to r-units [m] */
(PID.TID 0000.0001)                 9.737098344693282E-04
(PID.TID 0000.0001)     ;
(PID.TID 0000.0001) rUnit2mass = /* convert r-units [m] to mass per unit area [kg/m2] */
(PID.TID 0000.0001)                 1.027000000000000E+03
(PID.TID 0000.0001)     ;
(PID.TID 0000.0001) drC =   /* C spacing ( units of r ) */
(PID.TID 0000.0001)     2 @  2.500000000000000E+03              /* K =  1:  2 */
(PID.TID 0000.0001)     ;
(PID.TID 0000.0001) drF =   /* W spacing ( units of r ) */
(PID.TID 0000.0001)                 5.000000000000000E+03       /* K =  1 */
(PID.TID 0000.0001)     ;
(PID.TID 0000.0001) delX = /* U spacing ( m - cartesian, degrees - spherical ) */
(PID.TID 0000.0001)   248 @  5.000000000000000E+03              /* I =  1:248 */
(PID.TID 0000.0001)     ;
(PID.TID 0000.0001) delY = /* V spacing ( m - cartesian, degrees - spherical ) */
(PID.TID 0000.0001)   248 @  5.000000000000000E+03              /* J =  1:248 */
(PID.TID 0000.0001)     ;
(PID.TID 0000.0001) xgOrigin = /* X-axis origin of West  edge (cartesian: m, lat-lon: deg) */
(PID.TID 0000.0001)                -5.000000000000000E+03
(PID.TID 0000.0001)     ;
(PID.TID 0000.0001) ygOrigin = /* Y-axis origin of South edge (cartesian: m, lat-lon: deg) */
(PID.TID 0000.0001)                -5.000000000000000E+03
(PID.TID 0000.0001)     ;
(PID.TID 0000.0001) rSphere =  /* Radius ( ignored - cartesian, m - spherical ) */
(PID.TID 0000.0001)                 6.370000000000000E+06
(PID.TID 0000.0001)     ;
(PID.TID 0000.0001) deepAtmosphere = /* Deep/Shallow Atmosphere flag (True/False) */
(PID.TID 0000.0001)                   F
(PID.TID 0000.0001)     ;
(PID.TID 0000.0001) xC =  /* xC(:,1,:,1) : P-point X coord ( deg. or m if cartesian) */
(PID.TID 0000.0001)                -2.500000000000000E+03,      /* I =  1 */
(PID.TID 0000.0001)                 2.500000000000000E+03,      /* I =  2 */
(PID.TID 0000.0001)                 7.500000000000000E+03,      /* I =  3 */
(PID.TID 0000.0001)      . . .
(PID.TID 0000.0001)                 2.925000000000000E+05,      /* I = 60 */
(PID.TID 0000.0001)                 2.975000000000000E+05,      /* I = 61 */
(PID.TID 0000.0001)                 3.025000000000000E+05,      /* I = 62 */
(PID.TID 0000.0001)                 3.075000000000000E+05,      /* I = 63 */
(PID.TID 0000.0001)                 3.125000000000000E+05,      /* I = 64 */
(PID.TID 0000.0001)                 3.175000000000000E+05,      /* I = 65 */
(PID.TID 0000.0001)      . . .
(PID.TID 0000.0001)                 6.025000000000000E+05,      /* I =122 */
(PID.TID 0000.0001)                 6.075000000000000E+05,      /* I =123 */
(PID.TID 0000.0001)                 6.125000000000000E+05,      /* I =124 */
(PID.TID 0000.0001)                 6.175000000000000E+05,      /* I =125 */
(PID.TID 0000.0001)                 6.225000000000000E+05,      /* I =126 */
(PID.TID 0000.0001)                 6.275000000000000E+05,      /* I =127 */
(PID.TID 0000.0001)      . . .
(PID.TID 0000.0001)                 9.125000000000000E+05,      /* I =184 */
(PID.TID 0000.0001)                 9.175000000000000E+05,      /* I =185 */
(PID.TID 0000.0001)                 9.225000000000000E+05,      /* I =186 */
(PID.TID 0000.0001)                 9.275000000000000E+05,      /* I =187 */
(PID.TID 0000.0001)                 9.325000000000000E+05,      /* I =188 */
(PID.TID 0000.0001)                 9.375000000000000E+05,      /* I =189 */
(PID.TID 0000.0001)      . . .
(PID.TID 0000.0001)                 1.222500000000000E+06,      /* I =246 */
(PID.TID 0000.0001)                 1.227500000000000E+06,      /* I =247 */
(PID.TID 0000.0001)                 1.232500000000000E+06       /* I =248 */
(PID.TID 0000.0001)     ;
(PID.TID 0000.0001) yC =  /* yC(1,:,1,:) : P-point Y coord ( deg. or m if cartesian) */
(PID.TID 0000.0001)                -2.500000000000000E+03,      /* J =  1 */
(PID.TID 0000.0001)                 2.500000000000000E+03,      /* J =  2 */
(PID.TID 0000.0001)                 7.500000000000000E+03,      /* J =  3 */
(PID.TID 0000.0001)      . . .
(PID.TID 0000.0001)                 2.925000000000000E+05,      /* J = 60 */
(PID.TID 0000.0001)                 2.975000000000000E+05,      /* J = 61 */
(PID.TID 0000.0001)                 3.025000000000000E+05,      /* J = 62 */
(PID.TID 0000.0001)                 3.075000000000000E+05,      /* J = 63 */
(PID.TID 0000.0001)                 3.125000000000000E+05,      /* J = 64 */
(PID.TID 0000.0001)                 3.175000000000000E+05,      /* J = 65 */
(PID.TID 0000.0001)      . . .
(PID.TID 0000.0001)                 6.025000000000000E+05,      /* J =122 */
(PID.TID 0000.0001)                 6.075000000000000E+05,      /* J =123 */
(PID.TID 0000.0001)                 6.125000000000000E+05,      /* J =124 */
(PID.TID 0000.0001)                 6.175000000000000E+05,      /* J =125 */
(PID.TID 0000.0001)                 6.225000000000000E+05,      /* J =126 */
(PID.TID 0000.0001)                 6.275000000000000E+05,      /* J =127 */
(PID.TID 0000.0001)      . . .
(PID.TID 0000.0001)                 9.125000000000000E+05,      /* J =184 */
(PID.TID 0000.0001)                 9.175000000000000E+05,      /* J =185 */
(PID.TID 0000.0001)                 9.225000000000000E+05,      /* J =186 */
(PID.TID 0000.0001)                 9.275000000000000E+05,      /* J =187 */
(PID.TID 0000.0001)                 9.325000000000000E+05,      /* J =188 */
(PID.TID 0000.0001)                 9.375000000000000E+05,      /* J =189 */
(PID.TID 0000.0001)      . . .
(PID.TID 0000.0001)                 1.222500000000000E+06,      /* J =246 */
(PID.TID 0000.0001)                 1.227500000000000E+06,      /* J =247 */
(PID.TID 0000.0001)                 1.232500000000000E+06       /* J =248 */
(PID.TID 0000.0001)     ;
(PID.TID 0000.0001) rcoord = /* P-point R coordinate (  units of r ) */
(PID.TID 0000.0001)                -2.500000000000000E+03       /* K =  1 */
(PID.TID 0000.0001)     ;
(PID.TID 0000.0001) rF =   /* W-Interf. R coordinate (  units of r ) */
(PID.TID 0000.0001)                 0.000000000000000E+00,      /* K =  1 */
(PID.TID 0000.0001)                -5.000000000000000E+03       /* K =  2 */
(PID.TID 0000.0001)     ;
(PID.TID 0000.0001) deepFacC = /* deep-model grid factor @ cell-Center (-) */
(PID.TID 0000.0001)                 1.000000000000000E+00       /* K =  1 */
(PID.TID 0000.0001)     ;
(PID.TID 0000.0001) deepFacF = /* deep-model grid factor @ W-Interface (-) */
(PID.TID 0000.0001)     2 @  1.000000000000000E+00              /* K =  1:  2 */
(PID.TID 0000.0001)     ;
(PID.TID 0000.0001) rVel2wUnit = /* convert units: rVel -> wSpeed (=1 if z-coord)*/
(PID.TID 0000.0001)     2 @  1.000000000000000E+00              /* K =  1:  2 */
(PID.TID 0000.0001)     ;
(PID.TID 0000.0001) wUnit2rVel = /* convert units: wSpeed -> rVel (=1 if z-coord)*/
(PID.TID 0000.0001)     2 @  1.000000000000000E+00              /* K =  1:  2 */
(PID.TID 0000.0001)     ;
(PID.TID 0000.0001) dBdrRef = /* Vertical grad. of reference buoyancy [(m/s/r)^2] */
(PID.TID 0000.0001)                 0.000000000000000E+00       /* K =  1 */
(PID.TID 0000.0001)     ;
(PID.TID 0000.0001) rotateGrid = /* use rotated grid ( True/False ) */
(PID.TID 0000.0001)                   F
(PID.TID 0000.0001)     ;
(PID.TID 0000.0001) phiEuler = /* Euler angle, rotation about original z-coordinate [rad] */
(PID.TID 0000.0001)                 0.000000000000000E+00
(PID.TID 0000.0001)     ;
(PID.TID 0000.0001) thetaEuler = /* Euler angle, rotation about new x-coordinate [rad] */
(PID.TID 0000.0001)                 0.000000000000000E+00
(PID.TID 0000.0001)     ;
(PID.TID 0000.0001) psiEuler = /* Euler angle, rotation about new z-coordinate [rad] */
(PID.TID 0000.0001)                 0.000000000000000E+00
(PID.TID 0000.0001)     ;
(PID.TID 0000.0001) dxF =  /* dxF(:,1,:,1) ( units: m ) */
(PID.TID 0000.0001)   248 @  5.000000000000000E+03              /* I =  1:248 */
(PID.TID 0000.0001)     ;
(PID.TID 0000.0001) dxF =  /* dxF(1,:,1,:) ( units: m ) */
(PID.TID 0000.0001)   248 @  5.000000000000000E+03              /* J =  1:248 */
(PID.TID 0000.0001)     ;
(PID.TID 0000.0001) dyF =  /* dyF(:,1,:,1) ( units: m ) */
(PID.TID 0000.0001)   248 @  5.000000000000000E+03              /* I =  1:248 */
(PID.TID 0000.0001)     ;
(PID.TID 0000.0001) dyF =  /* dyF(1,:,1,:) ( units: m ) */
(PID.TID 0000.0001)   248 @  5.000000000000000E+03              /* J =  1:248 */
(PID.TID 0000.0001)     ;
(PID.TID 0000.0001) dxG =  /* dxG(:,1,:,1) ( units: m ) */
(PID.TID 0000.0001)   248 @  5.000000000000000E+03              /* I =  1:248 */
(PID.TID 0000.0001)     ;
(PID.TID 0000.0001) dxG =  /* dxG(1,:,1,:) ( units: m ) */
(PID.TID 0000.0001)   248 @  5.000000000000000E+03              /* J =  1:248 */
(PID.TID 0000.0001)     ;
(PID.TID 0000.0001) dyG =  /* dyG(:,1,:,1) ( units: m ) */
(PID.TID 0000.0001)   248 @  5.000000000000000E+03              /* I =  1:248 */
(PID.TID 0000.0001)     ;
(PID.TID 0000.0001) dyG =  /* dyG(1,:,1,:) ( units: m ) */
(PID.TID 0000.0001)   248 @  5.000000000000000E+03              /* J =  1:248 */
(PID.TID 0000.0001)     ;
(PID.TID 0000.0001) dxC =  /* dxC(:,1,:,1) ( units: m ) */
(PID.TID 0000.0001)   248 @  5.000000000000000E+03              /* I =  1:248 */
(PID.TID 0000.0001)     ;
(PID.TID 0000.0001) dxC =  /* dxC(1,:,1,:) ( units: m ) */
(PID.TID 0000.0001)   248 @  5.000000000000000E+03              /* J =  1:248 */
(PID.TID 0000.0001)     ;
(PID.TID 0000.0001) dyC =  /* dyC(:,1,:,1) ( units: m ) */
(PID.TID 0000.0001)   248 @  5.000000000000000E+03              /* I =  1:248 */
(PID.TID 0000.0001)     ;
(PID.TID 0000.0001) dyC =  /* dyC(1,:,1,:) ( units: m ) */
(PID.TID 0000.0001)   248 @  5.000000000000000E+03              /* J =  1:248 */
(PID.TID 0000.0001)     ;
(PID.TID 0000.0001) dxV =  /* dxV(:,1,:,1) ( units: m ) */
(PID.TID 0000.0001)   248 @  5.000000000000000E+03              /* I =  1:248 */
(PID.TID 0000.0001)     ;
(PID.TID 0000.0001) dxV =  /* dxV(1,:,1,:) ( units: m ) */
(PID.TID 0000.0001)   248 @  5.000000000000000E+03              /* J =  1:248 */
(PID.TID 0000.0001)     ;
(PID.TID 0000.0001) dyU =  /* dyU(:,1,:,1) ( units: m ) */
(PID.TID 0000.0001)   248 @  5.000000000000000E+03              /* I =  1:248 */
(PID.TID 0000.0001)     ;
(PID.TID 0000.0001) dyU =  /* dyU(1,:,1,:) ( units: m ) */
(PID.TID 0000.0001)   248 @  5.000000000000000E+03              /* J =  1:248 */
(PID.TID 0000.0001)     ;
(PID.TID 0000.0001) rA  =  /* rA (:,1,:,1) ( units: m^2 ) */
(PID.TID 0000.0001)   248 @  2.500000000000000E+07              /* I =  1:248 */
(PID.TID 0000.0001)     ;
(PID.TID 0000.0001) rA  =  /* rA (1,:,1,:) ( units: m^2 ) */
(PID.TID 0000.0001)   248 @  2.500000000000000E+07              /* J =  1:248 */
(PID.TID 0000.0001)     ;
(PID.TID 0000.0001) rAw =  /* rAw(:,1,:,1) ( units: m^2 ) */
(PID.TID 0000.0001)   248 @  2.500000000000000E+07              /* I =  1:248 */
(PID.TID 0000.0001)     ;
(PID.TID 0000.0001) rAw =  /* rAw(1,:,1,:) ( units: m^2 ) */
(PID.TID 0000.0001)   248 @  2.500000000000000E+07              /* J =  1:248 */
(PID.TID 0000.0001)     ;
(PID.TID 0000.0001) rAs =  /* rAs(:,1,:,1) ( units: m^2 ) */
(PID.TID 0000.0001)   248 @  2.500000000000000E+07              /* I =  1:248 */
(PID.TID 0000.0001)     ;
(PID.TID 0000.0001) rAs =  /* rAs(1,:,1,:) ( units: m^2 ) */
(PID.TID 0000.0001)   248 @  2.500000000000000E+07              /* J =  1:248 */
(PID.TID 0000.0001)     ;
(PID.TID 0000.0001) globalArea = /* Integrated horizontal Area (m^2) */
(PID.TID 0000.0001)                 1.512900000000000E+12
(PID.TID 0000.0001)     ;
(PID.TID 0000.0001) // =======================================================
(PID.TID 0000.0001) // End of Model config. summary
(PID.TID 0000.0001) // =======================================================
(PID.TID 0000.0001) 
(PID.TID 0000.0001) == Packages configuration : Check & print summary ==
(PID.TID 0000.0001) 
(PID.TID 0000.0001) // =======================================================
(PID.TID 0000.0001) // Check Model config. (CONFIG_CHECK):
(PID.TID 0000.0001) // CONFIG_CHECK : Normal End
(PID.TID 0000.0001) // =======================================================
(PID.TID 0000.0001) 
(PID.TID 0000.0001) Start initial hydrostatic pressure computation
(PID.TID 0000.0001) Pressure is predetermined for buoyancyRelation OCEANIC
(PID.TID 0000.0001) 
(PID.TID 0000.0001)  MDS_READ_FIELD: opening global file: wind.bin
(PID.TID 0000.0001) // =======================================================
(PID.TID 0000.0001) // Model current state
(PID.TID 0000.0001) // =======================================================
(PID.TID 0000.0001) 
(PID.TID 0000.0001) // =======================================================
(PID.TID 0000.0001) // Begin MONITOR dynamic field statistics
(PID.TID 0000.0001) // =======================================================
(PID.TID 0000.0001) %MON time_tsnumber                =                     0
(PID.TID 0000.0001) %MON time_secondsf                =   0.0000000000000E+00
(PID.TID 0000.0001) %MON dynstat_eta_max              =   0.0000000000000E+00
(PID.TID 0000.0001) %MON dynstat_eta_min              =   0.0000000000000E+00
(PID.TID 0000.0001) %MON dynstat_eta_mean             =   0.0000000000000E+00
(PID.TID 0000.0001) %MON dynstat_eta_sd               =   0.0000000000000E+00
(PID.TID 0000.0001) %MON dynstat_eta_del2             =   0.0000000000000E+00
(PID.TID 0000.0001) %MON dynstat_uvel_max             =   0.0000000000000E+00
(PID.TID 0000.0001) %MON dynstat_uvel_min             =   0.0000000000000E+00
(PID.TID 0000.0001) %MON dynstat_uvel_mean            =   0.0000000000000E+00
(PID.TID 0000.0001) %MON dynstat_uvel_sd              =   0.0000000000000E+00
(PID.TID 0000.0001) %MON dynstat_uvel_del2            =   0.0000000000000E+00
(PID.TID 0000.0001) %MON dynstat_vvel_max             =   0.0000000000000E+00
(PID.TID 0000.0001) %MON dynstat_vvel_min             =   0.0000000000000E+00
(PID.TID 0000.0001) %MON dynstat_vvel_mean            =   0.0000000000000E+00
(PID.TID 0000.0001) %MON dynstat_vvel_sd              =   0.0000000000000E+00
(PID.TID 0000.0001) %MON dynstat_vvel_del2            =   0.0000000000000E+00
(PID.TID 0000.0001) %MON dynstat_wvel_max             =   0.0000000000000E+00
(PID.TID 0000.0001) %MON dynstat_wvel_min             =   0.0000000000000E+00
(PID.TID 0000.0001) %MON dynstat_wvel_mean            =   0.0000000000000E+00
(PID.TID 0000.0001) %MON dynstat_wvel_sd              =   0.0000000000000E+00
(PID.TID 0000.0001) %MON dynstat_wvel_del2            =   0.0000000000000E+00
(PID.TID 0000.0001) %MON dynstat_theta_max            =   2.0000000000000E+01
(PID.TID 0000.0001) %MON dynstat_theta_min            =   2.0000000000000E+01
(PID.TID 0000.0001) %MON dynstat_theta_mean           =   1.9999999999999E+01
(PID.TID 0000.0001) %MON dynstat_theta_sd             =   1.1972645097557E-12
(PID.TID 0000.0001) %MON dynstat_theta_del2           =   0.0000000000000E+00
(PID.TID 0000.0001) %MON dynstat_salt_max             =   3.0000000000000E+01
(PID.TID 0000.0001) %MON dynstat_salt_min             =   3.0000000000000E+01
(PID.TID 0000.0001) %MON dynstat_salt_mean            =   2.9999999999998E+01
(PID.TID 0000.0001) %MON dynstat_salt_sd              =   2.1529444893531E-12
(PID.TID 0000.0001) %MON dynstat_salt_del2            =   0.0000000000000E+00
(PID.TID 0000.0001) %MON trAdv_CFL_u_max              =   0.0000000000000E+00
(PID.TID 0000.0001) %MON trAdv_CFL_v_max              =   0.0000000000000E+00
(PID.TID 0000.0001) %MON trAdv_CFL_w_max              =   0.0000000000000E+00
(PID.TID 0000.0001) %MON advcfl_uvel_max              =   0.0000000000000E+00
(PID.TID 0000.0001) %MON advcfl_vvel_max              =   0.0000000000000E+00
(PID.TID 0000.0001) %MON advcfl_wvel_max              =   0.0000000000000E+00
(PID.TID 0000.0001) %MON advcfl_W_hf_max              =   0.0000000000000E+00
(PID.TID 0000.0001) %MON pe_b_mean                    =   0.0000000000000E+00
(PID.TID 0000.0001) %MON ke_max                       =   0.0000000000000E+00
(PID.TID 0000.0001) %MON ke_mean                      =   0.0000000000000E+00
(PID.TID 0000.0001) %MON ke_vol                       =   7.2529629296391E+15
(PID.TID 0000.0001) %MON vort_r_min                   =   0.0000000000000E+00
(PID.TID 0000.0001) %MON vort_r_max                   =   0.0000000000000E+00
(PID.TID 0000.0001) %MON vort_a_mean                  =   8.2300000000000E-05
(PID.TID 0000.0001) %MON vort_a_sd                    =   7.1297555115552E-06
(PID.TID 0000.0001) %MON vort_p_mean                  =   8.6919888360246E-05
(PID.TID 0000.0001) %MON vort_p_sd                    =   1.7818246499131E-05
(PID.TID 0000.0001) %MON surfExpan_theta_mean         =   0.0000000000000E+00
(PID.TID 0000.0001) %MON surfExpan_salt_mean          =   0.0000000000000E+00
(PID.TID 0000.0001) // =======================================================
(PID.TID 0000.0001) // End MONITOR dynamic field statistics
(PID.TID 0000.0001) // =======================================================
(PID.TID 0000.0001) SOLVE_FOR_PRESSURE: putPmEinXvector =    F
 cg2d: Sum(rhs),rhsMax =   1.11022302462516E-16  9.73592635192475E-05
 cg2d: Sum(rhs),rhsMax =  -7.02327085377874E-13  1.15786318361865E-04
 cg2d: Sum(rhs),rhsMax =   3.06277225803342E-12  1.40965044910050E-04
 cg2d: Sum(rhs),rhsMax =   5.75117731216324E-12  1.66424792285985E-04
 cg2d: Sum(rhs),rhsMax =  -4.80226969301611E-13  1.93531974506253E-04
 cg2d: Sum(rhs),rhsMax =  -2.07861505785445E-12  2.21051268892991E-04
 cg2d: Sum(rhs),rhsMax =  -6.81121825607534E-12  2.48418964895479E-04
 cg2d: Sum(rhs),rhsMax =  -6.35147490157806E-12  2.75497529609697E-04
 cg2d: Sum(rhs),rhsMax =  -1.18089982237279E-11  3.02245044066546E-04
 cg2d: Sum(rhs),rhsMax =  -8.19272427676765E-12  3.28652306993534E-04
 cg2d: Sum(rhs),rhsMax =  -8.87245832359440E-12  3.54730592727815E-04
 cg2d: Sum(rhs),rhsMax =  -7.18630710494494E-12  3.80522708237503E-04
 cg2d: Sum(rhs),rhsMax =  -1.00890962251299E-11  4.06041333538043E-04
 cg2d: Sum(rhs),rhsMax =  -1.39854794412031E-11  4.31321752116649E-04
 cg2d: Sum(rhs),rhsMax =  -1.39649680708231E-11  4.56392661603038E-04
 cg2d: Sum(rhs),rhsMax =  -2.10426398528085E-11  4.81277303503255E-04
(PID.TID 0000.0001)      cg2d_init_res =   9.56895098468359E-01
(PID.TID 0000.0001)      cg2d_iters(min,last) =      -1     579
(PID.TID 0000.0001)      cg2d_last_res =   9.58646616726842E-08
(PID.TID 0000.0001) // =======================================================
(PID.TID 0000.0001) // Begin MONITOR dynamic field statistics
(PID.TID 0000.0001) // =======================================================
(PID.TID 0000.0001) %MON time_tsnumber                =                    16
(PID.TID 0000.0001) %MON time_secondsf                =   8.6400000000000E+04
(PID.TID 0000.0001) %MON dynstat_eta_max              =   1.8977296142429E-03
(PID.TID 0000.0001) %MON dynstat_eta_min              =  -2.3223101943026E-03
(PID.TID 0000.0001) %MON dynstat_eta_mean             =   1.0843884587185E-15
(PID.TID 0000.0001) %MON dynstat_eta_sd               =   1.0204739174264E-03
(PID.TID 0000.0001) %MON dynstat_eta_del2             =   5.3596762583889E-09
(PID.TID 0000.0001) %MON dynstat_uvel_max             =   9.9902027475372E-04
(PID.TID 0000.0001) %MON dynstat_uvel_min             =  -9.8832043430294E-04
(PID.TID 0000.0001) %MON dynstat_uvel_mean            =  -1.1582752315269E-07
(PID.TID 0000.0001) %MON dynstat_uvel_sd              =   5.4601600691980E-04
(PID.TID 0000.0001) %MON dynstat_uvel_del2            =   7.2023334427814E-08
(PID.TID 0000.0001) %MON dynstat_vvel_max             =   1.6885807285993E-03
(PID.TID 0000.0001) %MON dynstat_vvel_min             =  -1.3129069548575E-03
(PID.TID 0000.0001) %MON dynstat_vvel_mean            =  -6.6120312250206E-08
(PID.TID 0000.0001) %MON dynstat_vvel_sd              =   5.5770565457540E-04
(PID.TID 0000.0001) %MON dynstat_vvel_del2            =   1.0993747739588E-07
(PID.TID 0000.0001) %MON dynstat_wvel_max             =   2.2808062445138E-08
(PID.TID 0000.0001) %MON dynstat_wvel_min             =  -1.9259405778471E-08
(PID.TID 0000.0001) %MON dynstat_wvel_mean            =   1.2916099224008E-23
(PID.TID 0000.0001) %MON dynstat_wvel_sd              =   1.1749148523664E-08
(PID.TID 0000.0001) %MON dynstat_wvel_del2            =   8.4410971641810E-14
(PID.TID 0000.0001) %MON dynstat_theta_max            =   2.0000000000000E+01
(PID.TID 0000.0001) %MON dynstat_theta_min            =   2.0000000000000E+01
(PID.TID 0000.0001) %MON dynstat_theta_mean           =   1.9999999999999E+01
(PID.TID 0000.0001) %MON dynstat_theta_sd             =   1.1972645097557E-12
(PID.TID 0000.0001) %MON dynstat_theta_del2           =   0.0000000000000E+00
(PID.TID 0000.0001) %MON dynstat_salt_max             =   3.0000000000000E+01
(PID.TID 0000.0001) %MON dynstat_salt_min             =   3.0000000000000E+01
(PID.TID 0000.0001) %MON dynstat_salt_mean            =   2.9999999999998E+01
(PID.TID 0000.0001) %MON dynstat_salt_sd              =   2.1529444893531E-12
(PID.TID 0000.0001) %MON dynstat_salt_del2            =   0.0000000000000E+00
(PID.TID 0000.0001) %MON trAdv_CFL_u_max              =   1.0110099301873E-03
(PID.TID 0000.0001) %MON trAdv_CFL_v_max              =   1.6998354573224E-03
(PID.TID 0000.0001) %MON trAdv_CFL_w_max              =   2.7287100492599E-08
(PID.TID 0000.0001) %MON advcfl_uvel_max              =   1.0789418967340E-03
(PID.TID 0000.0001) %MON advcfl_vvel_max              =   1.8236671868872E-03
(PID.TID 0000.0001) %MON advcfl_wvel_max              =   4.9265414881497E-08
(PID.TID 0000.0001) %MON advcfl_W_hf_max              =   0.0000000000000E+00
(PID.TID 0000.0001) %MON pe_b_mean                    =   1.0654610913548E-09
(PID.TID 0000.0001) %MON ke_max                       =   1.4255780913621E-06
(PID.TID 0000.0001) %MON ke_mean                      =   3.0321349640930E-07
(PID.TID 0000.0001) %MON ke_vol                       =   7.2529629296391E+15
(PID.TID 0000.0001) %MON vort_r_min                   =  -5.6381960746412E-09
(PID.TID 0000.0001) %MON vort_r_max                   =   1.6625250872649E-07
(PID.TID 0000.0001) %MON vort_a_mean                  =   8.2300000000000E-05
(PID.TID 0000.0001) %MON vort_a_sd                    =   7.1297701624517E-06
(PID.TID 0000.0001) %MON vort_p_mean                  =   8.6919888360246E-05
(PID.TID 0000.0001) %MON vort_p_sd                    =   1.7835518741764E-05
(PID.TID 0000.0001) %MON surfExpan_theta_mean         =   6.7686839234414E-22
(PID.TID 0000.0001) %MON surfExpan_salt_mean          =  -6.8494647751506E-22
(PID.TID 0000.0001) // =======================================================
(PID.TID 0000.0001) // End MONITOR dynamic field statistics
(PID.TID 0000.0001) // =======================================================
 cg2d: Sum(rhs),rhsMax =  -2.11086981227737E-11  5.06007244526310E-04
 cg2d: Sum(rhs),rhsMax =  -2.27493857085648E-11  5.30609139322496E-04
 cg2d: Sum(rhs),rhsMax =  -2.67225130912152E-11  5.55079243039296E-04
 cg2d: Sum(rhs),rhsMax =  -3.25748039653462E-11  5.79477159384322E-04
 cg2d: Sum(rhs),rhsMax =  -3.85720344553420E-11  6.03774869058260E-04
 cg2d: Sum(rhs),rhsMax =  -4.00021404889372E-11  6.28024247329802E-04
 cg2d: Sum(rhs),rhsMax =  -3.94965449235229E-11  6.52216354240540E-04
 cg2d: Sum(rhs),rhsMax =  -4.34528524273503E-11  6.76356265774084E-04
 cg2d: Sum(rhs),rhsMax =  -4.85620987866753E-11  7.00492772370623E-04
 cg2d: Sum(rhs),rhsMax =  -5.35418376301777E-11  7.24602151639063E-04
 cg2d: Sum(rhs),rhsMax =  -5.80034353880876E-11  7.48693567570014E-04
 cg2d: Sum(rhs),rhsMax =  -5.90583693060864E-11  7.72781277208023E-04
 cg2d: Sum(rhs),rhsMax =  -6.32264102184976E-11  7.96893276050326E-04
 cg2d: Sum(rhs),rhsMax =  -6.57207066545595E-11  8.21011580226280E-04
 cg2d: Sum(rhs),rhsMax =  -7.08272746008376E-11  8.45142853744261E-04
 cg2d: Sum(rhs),rhsMax =  -7.80635139863151E-11  8.69293069792684E-04
(PID.TID 0000.0001)      cg2d_init_res =   4.85972645987888E-01
(PID.TID 0000.0001)      cg2d_iters(min,last) =      -1     578
(PID.TID 0000.0001)      cg2d_last_res =   9.53391466039220E-08
(PID.TID 0000.0001) // =======================================================
(PID.TID 0000.0001) // Begin MONITOR dynamic field statistics
(PID.TID 0000.0001) // =======================================================
(PID.TID 0000.0001) %MON time_tsnumber                =                    32
(PID.TID 0000.0001) %MON time_secondsf                =   1.7280000000000E+05
(PID.TID 0000.0001) %MON dynstat_eta_max              =   3.8531781251346E-03
(PID.TID 0000.0001) %MON dynstat_eta_min              =  -3.8946713331931E-03
(PID.TID 0000.0001) %MON dynstat_eta_mean             =   7.0781713121747E-15
(PID.TID 0000.0001) %MON dynstat_eta_sd               =   2.0025492281003E-03
(PID.TID 0000.0001) %MON dynstat_eta_del2             =   1.2731283752612E-08
(PID.TID 0000.0001) %MON dynstat_uvel_max             =   2.0214510359663E-03
(PID.TID 0000.0001) %MON dynstat_uvel_min             =  -1.9376919328033E-03
(PID.TID 0000.0001) %MON dynstat_uvel_mean            =  -2.2795208616671E-07
(PID.TID 0000.0001) %MON dynstat_uvel_sd              =   1.0714646888427E-03
(PID.TID 0000.0001) %MON dynstat_uvel_del2            =   1.1628007983690E-07
(PID.TID 0000.0001) %MON dynstat_vvel_max             =   3.6835701641665E-03
(PID.TID 0000.0001) %MON dynstat_vvel_min             =  -2.2487331205190E-03
(PID.TID 0000.0001) %MON dynstat_vvel_mean            =  -4.6996339826646E-08
(PID.TID 0000.0001) %MON dynstat_vvel_sd              =   1.1088541043705E-03
(PID.TID 0000.0001) %MON dynstat_vvel_del2            =   1.8792470866634E-07
(PID.TID 0000.0001) %MON dynstat_wvel_max             =   2.3331072851506E-08
(PID.TID 0000.0001) %MON dynstat_wvel_min             =  -1.8205635579076E-08
(PID.TID 0000.0001) %MON dynstat_wvel_mean            =   5.4532746846625E-22
(PID.TID 0000.0001) %MON dynstat_wvel_sd              =   1.1612671247571E-08
(PID.TID 0000.0001) %MON dynstat_wvel_del2            =   9.0219055740739E-14
(PID.TID 0000.0001) %MON dynstat_theta_max            =   2.0000000000000E+01
(PID.TID 0000.0001) %MON dynstat_theta_min            =   2.0000000000000E+01
(PID.TID 0000.0001) %MON dynstat_theta_mean           =   1.9999999999999E+01
(PID.TID 0000.0001) %MON dynstat_theta_sd             =   1.1972645097557E-12
(PID.TID 0000.0001) %MON dynstat_theta_del2           =   0.0000000000000E+00
(PID.TID 0000.0001) %MON dynstat_salt_max             =   3.0000000000000E+01
(PID.TID 0000.0001) %MON dynstat_salt_min             =   3.0000000000000E+01
(PID.TID 0000.0001) %MON dynstat_salt_mean            =   2.9999999999998E+01
(PID.TID 0000.0001) %MON dynstat_salt_sd              =   2.1529444893531E-12
(PID.TID 0000.0001) %MON dynstat_salt_del2            =   0.0000000000000E+00
(PID.TID 0000.0001) %MON trAdv_CFL_u_max              =   2.1129281692191E-03
(PID.TID 0000.0001) %MON trAdv_CFL_v_max              =   3.8336746962863E-03
(PID.TID 0000.0001) %MON trAdv_CFL_w_max              =   2.7704642697606E-08
(PID.TID 0000.0001) %MON advcfl_uvel_max              =   2.1831671188436E-03
(PID.TID 0000.0001) %MON advcfl_vvel_max              =   3.9782557772998E-03
(PID.TID 0000.0001) %MON advcfl_wvel_max              =   5.0395117359253E-08
(PID.TID 0000.0001) %MON advcfl_W_hf_max              =   0.0000000000000E+00
(PID.TID 0000.0001) %MON pe_b_mean                    =   4.1029873584895E-09
(PID.TID 0000.0001) %MON ke_max                       =   6.7840202117666E-06
(PID.TID 0000.0001) %MON ke_mean                      =   1.1834458013438E-06
(PID.TID 0000.0001) %MON ke_vol                       =   7.2529629296391E+15
(PID.TID 0000.0001) %MON vort_r_min                   =  -1.4135991107121E-08
(PID.TID 0000.0001) %MON vort_r_max                   =   2.8098453956996E-07
(PID.TID 0000.0001) %MON vort_a_mean                  =   8.2300000000000E-05
(PID.TID 0000.0001) %MON vort_a_sd                    =   7.1298024981876E-06
(PID.TID 0000.0001) %MON vort_p_mean                  =   8.6919888360246E-05
(PID.TID 0000.0001) %MON vort_p_sd                    =   1.7842911554010E-05
(PID.TID 0000.0001) %MON surfExpan_theta_mean         =   1.0912364717088E-20
(PID.TID 0000.0001) %MON surfExpan_salt_mean          =   1.5917489930251E-20
(PID.TID 0000.0001) // =======================================================
(PID.TID 0000.0001) // End MONITOR dynamic field statistics
(PID.TID 0000.0001) // =======================================================
 cg2d: Sum(rhs),rhsMax =  -8.33905028363446E-11  8.93467581210022E-04
 cg2d: Sum(rhs),rhsMax =  -8.43271424910697E-11  9.17679467319584E-04
 cg2d: Sum(rhs),rhsMax =  -9.05329838873925E-11  9.41937152254628E-04
 cg2d: Sum(rhs),rhsMax =  -9.03210145564159E-11  9.66231248955768E-04
 cg2d: Sum(rhs),rhsMax =  -9.68009561397309E-11  9.90565162567162E-04
 cg2d: Sum(rhs),rhsMax =  -1.04738731576681E-10  1.01494191865959E-03
 cg2d: Sum(rhs),rhsMax =  -1.11843895256314E-10  1.03936419711457E-03
 cg2d: Sum(rhs),rhsMax =  -1.19391621589138E-10  1.06383436077104E-03
 cg2d: Sum(rhs),rhsMax =  -1.27839461239176E-10  1.08835448174429E-03
 cg2d: Sum(rhs),rhsMax =  -1.35212438467924E-10  1.11292636475271E-03
 cg2d: Sum(rhs),rhsMax =  -1.44743744767695E-10  1.13755156808108E-03
 cg2d: Sum(rhs),rhsMax =  -1.50120985087376E-10  1.16223142240913E-03
 cg2d: Sum(rhs),rhsMax =  -1.61227226014304E-10  1.18696704777576E-03
 cg2d: Sum(rhs),rhsMax =  -1.65963701115324E-10  1.21175936889834E-03
 cg2d: Sum(rhs),rhsMax =  -1.79633752317443E-10  1.23660912903869E-03
 cg2d: Sum(rhs),rhsMax =  -1.87795667905277E-10  1.26151690258239E-03
(PID.TID 0000.0001)      cg2d_init_res =   3.37729072211204E-01
(PID.TID 0000.0001)      cg2d_iters(min,last) =      -1     577
(PID.TID 0000.0001)      cg2d_last_res =   9.55987890981577E-08
(PID.TID 0000.0001) // =======================================================
(PID.TID 0000.0001) // Begin MONITOR dynamic field statistics
(PID.TID 0000.0001) // =======================================================
(PID.TID 0000.0001) %MON time_tsnumber                =                    48
(PID.TID 0000.0001) %MON time_secondsf                =   2.5920000000000E+05
(PID.TID 0000.0001) %MON dynstat_eta_max              =   5.8110547178019E-03
(PID.TID 0000.0001) %MON dynstat_eta_min              =  -5.3615065211908E-03
(PID.TID 0000.0001) %MON dynstat_eta_mean             =   2.4426425186481E-14
(PID.TID 0000.0001) %MON dynstat_eta_sd               =   2.9661830769230E-03
(PID.TID 0000.0001) %MON dynstat_eta_del2             =   2.0319025842756E-08
(PID.TID 0000.0001) %MON dynstat_uvel_max             =   3.0848802804563E-03
(PID.TID 0000.0001) %MON dynstat_uvel_min             =  -2.8143153437748E-03
(PID.TID 0000.0001) %MON dynstat_uvel_mean            =  -3.2448358918291E-07
(PID.TID 0000.0001) %MON dynstat_uvel_sd              =   1.5682669935658E-03
(PID.TID 0000.0001) %MON dynstat_uvel_del2            =   1.4238327456609E-07
(PID.TID 0000.0001) %MON dynstat_vvel_max             =   5.9600055712932E-03
(PID.TID 0000.0001) %MON dynstat_vvel_min             =  -2.8754082581104E-03
(PID.TID 0000.0001) %MON dynstat_vvel_mean            =  -1.6679674113192E-08
(PID.TID 0000.0001) %MON dynstat_vvel_sd              =   1.6585975033093E-03
(PID.TID 0000.0001) %MON dynstat_vvel_del2            =   2.5244146259742E-07
(PID.TID 0000.0001) %MON dynstat_wvel_max             =   2.4124642946554E-08
(PID.TID 0000.0001) %MON dynstat_wvel_min             =  -1.6783086655977E-08
(PID.TID 0000.0001) %MON dynstat_wvel_mean            =   4.0910197658102E-22
(PID.TID 0000.0001) %MON dynstat_wvel_sd              =   1.1427809719496E-08
(PID.TID 0000.0001) %MON dynstat_wvel_del2            =   9.4530752851340E-14
(PID.TID 0000.0001) %MON dynstat_theta_max            =   2.0000000000000E+01
(PID.TID 0000.0001) %MON dynstat_theta_min            =   2.0000000000000E+01
(PID.TID 0000.0001) %MON dynstat_theta_mean           =   1.9999999999999E+01
(PID.TID 0000.0001) %MON dynstat_theta_sd             =   1.1972645097557E-12
(PID.TID 0000.0001) %MON dynstat_theta_del2           =   0.0000000000000E+00
(PID.TID 0000.0001) %MON dynstat_salt_max             =   3.0000000000000E+01
(PID.TID 0000.0001) %MON dynstat_salt_min             =   3.0000000000000E+01
(PID.TID 0000.0001) %MON dynstat_salt_mean            =   2.9999999999998E+01
(PID.TID 0000.0001) %MON dynstat_salt_sd              =   2.1529444893531E-12
(PID.TID 0000.0001) %MON dynstat_salt_del2            =   0.0000000000000E+00
(PID.TID 0000.0001) %MON trAdv_CFL_u_max              =   3.2581233474258E-03
(PID.TID 0000.0001) %MON trAdv_CFL_v_max              =   6.2724874389739E-03
(PID.TID 0000.0001) %MON trAdv_CFL_w_max              =   2.8383604894464E-08
(PID.TID 0000.0001) %MON advcfl_uvel_max              =   3.3316707028928E-03
(PID.TID 0000.0001) %MON advcfl_vvel_max              =   6.4368060169967E-03
(PID.TID 0000.0001) %MON advcfl_wvel_max              =   5.2109228764556E-08
(PID.TID 0000.0001) %MON advcfl_W_hf_max              =   0.0000000000000E+00
(PID.TID 0000.0001) %MON pe_b_mean                    =   9.0018066894672E-09
(PID.TID 0000.0001) %MON ke_max                       =   1.7759367401211E-05
(PID.TID 0000.0001) %MON ke_mean                      =   2.5934765605823E-06
(PID.TID 0000.0001) %MON ke_vol                       =   7.2529629296391E+15
(PID.TID 0000.0001) %MON vort_r_min                   =  -2.5776603356365E-08
(PID.TID 0000.0001) %MON vort_r_max                   =   4.3902636720042E-07
(PID.TID 0000.0001) %MON vort_a_mean                  =   8.2300000000000E-05
(PID.TID 0000.0001) %MON vort_a_sd                    =   7.1298507373138E-06
(PID.TID 0000.0001) %MON vort_p_mean                  =   8.6919888360246E-05
(PID.TID 0000.0001) %MON vort_p_sd                    =   1.7848331283280E-05
(PID.TID 0000.0001) %MON surfExpan_theta_mean         =   8.3104099611159E-21
(PID.TID 0000.0001) %MON surfExpan_salt_mean          =   1.2019065907924E-20
(PID.TID 0000.0001) // =======================================================
(PID.TID 0000.0001) // End MONITOR dynamic field statistics
(PID.TID 0000.0001) // =======================================================
 cg2d: Sum(rhs),rhsMax =  -1.96941879471169E-10  1.28648310647337E-03
 cg2d: Sum(rhs),rhsMax =  -2.02850722330616E-10  1.31150965628598E-03
 cg2d: Sum(rhs),rhsMax =  -2.13186412967303E-10  1.33659504701160E-03
 cg2d: Sum(rhs),rhsMax =  -2.22874010913365E-10  1.36173821821363E-03
 cg2d: Sum(rhs),rhsMax =  -2.29930019468583E-10  1.38693903477903E-03
 cg2d: Sum(rhs),rhsMax =  -2.39355688047560E-10  1.41219724792849E-03
 cg2d: Sum(rhs),rhsMax =  -2.49896547899198E-10  1.43751332423221E-03
 cg2d: Sum(rhs),rhsMax =  -2.65070534966050E-10  1.46288896801125E-03
 cg2d: Sum(rhs),rhsMax =  -2.73598352307225E-10  1.48832179118695E-03
 cg2d: Sum(rhs),rhsMax =  -2.81871623264429E-10  1.51381117199426E-03
 cg2d: Sum(rhs),rhsMax =  -3.02478195268741E-10  1.53935640307252E-03
 cg2d: Sum(rhs),rhsMax =  -3.16095503938296E-10  1.56495669737255E-03
 cg2d: Sum(rhs),rhsMax =  -3.34353690567557E-10  1.59061119208234E-03
 cg2d: Sum(rhs),rhsMax =  -3.47104706088786E-10  1.61631895257801E-03
 cg2d: Sum(rhs),rhsMax =  -3.61341637167278E-10  1.64207897613186E-03
 cg2d: Sum(rhs),rhsMax =  -3.81965813145424E-10  1.66789019536324E-03
(PID.TID 0000.0001)      cg2d_init_res =   2.64699860515307E-01
(PID.TID 0000.0001)      cg2d_iters(min,last) =      -1     576
(PID.TID 0000.0001)      cg2d_last_res =   9.73474823199148E-08
(PID.TID 0000.0001) // =======================================================
(PID.TID 0000.0001) // Begin MONITOR dynamic field statistics
(PID.TID 0000.0001) // =======================================================
(PID.TID 0000.0001) %MON time_tsnumber                =                    64
(PID.TID 0000.0001) %MON time_secondsf                =   3.4560000000000E+05
(PID.TID 0000.0001) %MON dynstat_eta_max              =   7.7714328929932E-03
(PID.TID 0000.0001) %MON dynstat_eta_min              =  -6.6938570431931E-03
(PID.TID 0000.0001) %MON dynstat_eta_mean             =   6.4709905119092E-14
(PID.TID 0000.0001) %MON dynstat_eta_sd               =   3.8914954110970E-03
(PID.TID 0000.0001) %MON dynstat_eta_del2             =   2.8190057898102E-08
(PID.TID 0000.0001) %MON dynstat_uvel_max             =   4.1975504383671E-03
(PID.TID 0000.0001) %MON dynstat_uvel_min             =  -3.5898953775622E-03
(PID.TID 0000.0001) %MON dynstat_uvel_mean            =  -4.0115688432904E-07
(PID.TID 0000.0001) %MON dynstat_uvel_sd              =   2.0285578333029E-03
(PID.TID 0000.0001) %MON dynstat_uvel_del2            =   1.5916563084898E-07
(PID.TID 0000.0001) %MON dynstat_vvel_max             =   8.5203144956378E-03
(PID.TID 0000.0001) %MON dynstat_vvel_min             =  -3.2517357070224E-03
(PID.TID 0000.0001) %MON dynstat_vvel_mean            =   2.2357728068631E-08
(PID.TID 0000.0001) %MON dynstat_vvel_sd              =   2.2076832719488E-03
(PID.TID 0000.0001) %MON dynstat_vvel_del2            =   3.1632838292757E-07
(PID.TID 0000.0001) %MON dynstat_wvel_max             =   2.5044355165010E-08
(PID.TID 0000.0001) %MON dynstat_wvel_min             =  -1.5036748737299E-08
(PID.TID 0000.0001) %MON dynstat_wvel_mean            =  -5.6779545629224E-26
(PID.TID 0000.0001) %MON dynstat_wvel_sd              =   1.1189768002394E-08
(PID.TID 0000.0001) %MON dynstat_wvel_del2            =   1.0005268350687E-13
(PID.TID 0000.0001) %MON dynstat_theta_max            =   2.0000000000000E+01
(PID.TID 0000.0001) %MON dynstat_theta_min            =   2.0000000000000E+01
(PID.TID 0000.0001) %MON dynstat_theta_mean           =   1.9999999999999E+01
(PID.TID 0000.0001) %MON dynstat_theta_sd             =   1.1972645097557E-12
(PID.TID 0000.0001) %MON dynstat_theta_del2           =   0.0000000000000E+00
(PID.TID 0000.0001) %MON dynstat_salt_max             =   3.0000000000000E+01
(PID.TID 0000.0001) %MON dynstat_salt_min             =   3.0000000000000E+01
(PID.TID 0000.0001) %MON dynstat_salt_mean            =   2.9999999999998E+01
(PID.TID 0000.0001) %MON dynstat_salt_sd              =   2.1529444893531E-12
(PID.TID 0000.0001) %MON dynstat_salt_del2            =   0.0000000000000E+00
(PID.TID 0000.0001) %MON trAdv_CFL_u_max              =   4.4562352581158E-03
(PID.TID 0000.0001) %MON trAdv_CFL_v_max              =   9.0221816674547E-03
(PID.TID 0000.0001) %MON trAdv_CFL_w_max              =   2.9195272080825E-08
(PID.TID 0000.0001) %MON advcfl_uvel_max              =   4.5333544734364E-03
(PID.TID 0000.0001) %MON advcfl_vvel_max              =   9.2019396552888E-03
(PID.TID 0000.0001) %MON advcfl_wvel_max              =   5.4095807156421E-08
(PID.TID 0000.0001) %MON advcfl_W_hf_max              =   0.0000000000000E+00
(PID.TID 0000.0001) %MON pe_b_mean                    =   1.5494116680420E-08
(PID.TID 0000.0001) %MON ke_max                       =   3.6297681980361E-05
(PID.TID 0000.0001) %MON ke_mean                      =   4.4742249788816E-06
(PID.TID 0000.0001) %MON ke_vol                       =   7.2529629296391E+15
(PID.TID 0000.0001) %MON vort_r_min                   =  -4.0744417858442E-08
(PID.TID 0000.0001) %MON vort_r_max                   =   6.0401831909714E-07
(PID.TID 0000.0001) %MON vort_a_mean                  =   8.2300000000000E-05
(PID.TID 0000.0001) %MON vort_a_sd                    =   7.1299164474098E-06
(PID.TID 0000.0001) %MON vort_p_mean                  =   8.6919888360246E-05
(PID.TID 0000.0001) %MON vort_p_sd                    =   1.7852819380876E-05
(PID.TID 0000.0001) %MON surfExpan_theta_mean         =   4.5181153051417E-22
(PID.TID 0000.0001) %MON surfExpan_salt_mean          =   5.8709245190037E-22
(PID.TID 0000.0001) // =======================================================
(PID.TID 0000.0001) // End MONITOR dynamic field statistics
(PID.TID 0000.0001) // =======================================================
 cg2d: Sum(rhs),rhsMax =  -3.94524947433528E-10  1.69375148148215E-03
 cg2d: Sum(rhs),rhsMax =  -4.12153131068571E-10  1.71966164732640E-03
 cg2d: Sum(rhs),rhsMax =  -4.28201224478286E-10  1.74561945021876E-03
 cg2d: Sum(rhs),rhsMax =  -4.41273670381825E-10  1.77162359465378E-03
 cg2d: Sum(rhs),rhsMax =  -4.59061434698871E-10  1.79767273483306E-03
 cg2d: Sum(rhs),rhsMax =  -4.76694572704162E-10  1.82376547705767E-03
 cg2d: Sum(rhs),rhsMax =  -4.93660376466032E-10  1.84990038199178E-03
 cg2d: Sum(rhs),rhsMax =  -5.09008120375132E-10  1.87607596680486E-03
 cg2d: Sum(rhs),rhsMax =  -5.22960438842368E-10  1.90229070720688E-03
 cg2d: Sum(rhs),rhsMax =  -5.39047272096749E-10  1.92854303937834E-03
 cg2d: Sum(rhs),rhsMax =  -5.56695474440705E-10  1.95483136180997E-03
 cg2d: Sum(rhs),rhsMax =  -5.73427805239390E-10  1.98115403705285E-03
 cg2d: Sum(rhs),rhsMax =  -5.90526433308369E-10  2.00752587082907E-03
 cg2d: Sum(rhs),rhsMax =  -6.10589738492262E-10  2.03394073657621E-03
 cg2d: Sum(rhs),rhsMax =  -6.22859083754257E-10  2.06038639718333E-03
 cg2d: Sum(rhs),rhsMax =  -6.42841682663153E-10  2.08686110613003E-03
(PID.TID 0000.0001)      cg2d_init_res =   2.19609124255632E-01
(PID.TID 0000.0001)      cg2d_iters(min,last) =      -1     576
(PID.TID 0000.0001)      cg2d_last_res =   9.22917249181644E-08
(PID.TID 0000.0001) // =======================================================
(PID.TID 0000.0001) // Begin MONITOR dynamic field statistics
(PID.TID 0000.0001) // =======================================================
(PID.TID 0000.0001) %MON time_tsnumber                =                    80
(PID.TID 0000.0001) %MON time_secondsf                =   4.3200000000000E+05
(PID.TID 0000.0001) %MON dynstat_eta_max              =   9.7289505464339E-03
(PID.TID 0000.0001) %MON dynstat_eta_min              =  -7.8677356710731E-03
(PID.TID 0000.0001) %MON dynstat_eta_mean             =   1.3462317575347E-13
(PID.TID 0000.0001) %MON dynstat_eta_sd               =   4.7658962725534E-03
(PID.TID 0000.0001) %MON dynstat_eta_del2             =   3.6439982736028E-08
(PID.TID 0000.0001) %MON dynstat_uvel_max             =   5.3596074103299E-03
(PID.TID 0000.0001) %MON dynstat_uvel_min             =  -4.2439582470364E-03
(PID.TID 0000.0001) %MON dynstat_uvel_mean            =  -4.5483002323117E-07
(PID.TID 0000.0001) %MON dynstat_uvel_sd              =   2.4467375010210E-03
(PID.TID 0000.0001) %MON dynstat_uvel_del2            =   1.7016575926904E-07
(PID.TID 0000.0001) %MON dynstat_vvel_max             =   1.1282986833755E-02
(PID.TID 0000.0001) %MON dynstat_vvel_min             =  -3.4309207545542E-03
(PID.TID 0000.0001) %MON dynstat_vvel_mean            =   6.7138536414432E-08
(PID.TID 0000.0001) %MON dynstat_vvel_sd              =   2.7540685092976E-03
(PID.TID 0000.0001) %MON dynstat_vvel_del2            =   3.8208568430365E-07
(PID.TID 0000.0001) %MON dynstat_wvel_max             =   2.5979706364160E-08
(PID.TID 0000.0001) %MON dynstat_wvel_min             =  -1.3045589082540E-08
(PID.TID 0000.0001) %MON dynstat_wvel_mean            =  -3.9304057908587E-22
(PID.TID 0000.0001) %MON dynstat_wvel_sd              =   1.0900221899536E-08
(PID.TID 0000.0001) %MON dynstat_wvel_del2            =   1.0588831711947E-13
(PID.TID 0000.0001) %MON dynstat_theta_max            =   2.0000000000000E+01
(PID.TID 0000.0001) %MON dynstat_theta_min            =   2.0000000000000E+01
(PID.TID 0000.0001) %MON dynstat_theta_mean           =   1.9999999999999E+01
(PID.TID 0000.0001) %MON dynstat_theta_sd             =   1.1972645097557E-12
(PID.TID 0000.0001) %MON dynstat_theta_del2           =   0.0000000000000E+00
(PID.TID 0000.0001) %MON dynstat_salt_max             =   3.0000000000000E+01
(PID.TID 0000.0001) %MON dynstat_salt_min             =   3.0000000000000E+01
(PID.TID 0000.0001) %MON dynstat_salt_mean            =   2.9999999999998E+01
(PID.TID 0000.0001) %MON dynstat_salt_sd              =   2.1529444893531E-12
(PID.TID 0000.0001) %MON dynstat_salt_del2            =   0.0000000000000E+00
(PID.TID 0000.0001) %MON trAdv_CFL_u_max              =   5.7078971182732E-03
(PID.TID 0000.0001) %MON trAdv_CFL_v_max              =   1.1993883718893E-02
(PID.TID 0000.0001) %MON trAdv_CFL_w_max              =   3.0028869310163E-08
(PID.TID 0000.0001) %MON advcfl_uvel_max              =   5.7883760031563E-03
(PID.TID 0000.0001) %MON advcfl_vvel_max              =   1.2185625780456E-02
(PID.TID 0000.0001) %MON advcfl_wvel_max              =   5.6116165746585E-08
(PID.TID 0000.0001) %MON advcfl_W_hf_max              =   0.0000000000000E+00
(PID.TID 0000.0001) %MON pe_b_mean                    =   2.3239294984818E-08
(PID.TID 0000.0001) %MON ke_max                       =   6.3650054235661E-05
(PID.TID 0000.0001) %MON ke_mean                      =   6.7551639235223E-06
(PID.TID 0000.0001) %MON ke_vol                       =   7.2529629296391E+15
(PID.TID 0000.0001) %MON vort_r_min                   =  -5.9290107561915E-08
(PID.TID 0000.0001) %MON vort_r_max                   =   7.7527578628104E-07
(PID.TID 0000.0001) %MON vort_a_mean                  =   8.2300000000001E-05
(PID.TID 0000.0001) %MON vort_a_sd                    =   7.1300018782699E-06
(PID.TID 0000.0001) %MON vort_p_mean                  =   8.6919888360247E-05
(PID.TID 0000.0001) %MON vort_p_sd                    =   1.7856755934279E-05
(PID.TID 0000.0001) %MON surfExpan_theta_mean         =  -7.8417917865411E-21
(PID.TID 0000.0001) %MON surfExpan_salt_mean          =  -1.1911437164424E-20
(PID.TID 0000.0001) // =======================================================
(PID.TID 0000.0001) // End MONITOR dynamic field statistics
(PID.TID 0000.0001) // =======================================================
 cg2d: Sum(rhs),rhsMax =  -6.61981330862815E-10  2.11336308853051E-03
 cg2d: Sum(rhs),rhsMax =  -6.82539476326571E-10  2.13989054247652E-03
 cg2d: Sum(rhs),rhsMax =  -7.07027103530322E-10  2.16644164032875E-03
 cg2d: Sum(rhs),rhsMax =  -7.27518413567996E-10  2.19301452996054E-03
 cg2d: Sum(rhs),rhsMax =  -7.49184353443511E-10  2.21960733595826E-03
 cg2d: Sum(rhs),rhsMax =  -7.74913466727867E-10  2.24621816062764E-03
 cg2d: Sum(rhs),rhsMax =  -8.01798169525192E-10  2.27284508570012E-03
 cg2d: Sum(rhs),rhsMax =  -8.29196628027162E-10  2.29948766244487E-03
 cg2d: Sum(rhs),rhsMax =  -8.57234679074725E-10  2.32618267403501E-03
 cg2d: Sum(rhs),rhsMax =  -8.88465842563413E-10  2.35288966769152E-03
 cg2d: Sum(rhs),rhsMax =  -9.21646342577631E-10  2.37960666920069E-03
 cg2d: Sum(rhs),rhsMax =  -9.54534756791858E-10  2.40633168819216E-03
 cg2d: Sum(rhs),rhsMax =  -9.86870904440273E-10  2.43306271922262E-03
 cg2d: Sum(rhs),rhsMax =  -1.01866495794134E-09  2.45979774254599E-03
 cg2d: Sum(rhs),rhsMax =  -1.05338396338972E-09  2.48653472508953E-03
 cg2d: Sum(rhs),rhsMax =  -1.08977897539386E-09  2.51327162123214E-03
(PID.TID 0000.0001)      cg2d_init_res =   1.87716469922498E-01
(PID.TID 0000.0001)      cg2d_iters(min,last) =      -1     575
(PID.TID 0000.0001)      cg2d_last_res =   9.61708341023290E-08
(PID.TID 0000.0001) // =======================================================
(PID.TID 0000.0001) // Begin MONITOR dynamic field statistics
(PID.TID 0000.0001) // =======================================================
(PID.TID 0000.0001) %MON time_tsnumber                =                    96
(PID.TID 0000.0001) %MON time_secondsf                =   5.1840000000000E+05
(PID.TID 0000.0001) %MON dynstat_eta_max              =   1.1674563166188E-02
(PID.TID 0000.0001) %MON dynstat_eta_min              =  -8.8664466050142E-03
(PID.TID 0000.0001) %MON dynstat_eta_mean             =   2.7548325007429E-13
(PID.TID 0000.0001) %MON dynstat_eta_sd               =   5.5789649933153E-03
(PID.TID 0000.0001) %MON dynstat_eta_del2             =   4.5092045832517E-08
(PID.TID 0000.0001) %MON dynstat_uvel_max             =   6.5686817505197E-03
(PID.TID 0000.0001) %MON dynstat_uvel_min             =  -4.7652476539556E-03
(PID.TID 0000.0001) %MON dynstat_uvel_mean            =  -4.8381166202301E-07
(PID.TID 0000.0001) %MON dynstat_uvel_sd              =   2.8200156816069E-03
(PID.TID 0000.0001) %MON dynstat_uvel_del2            =   1.7750984981462E-07
(PID.TID 0000.0001) %MON dynstat_vvel_max             =   1.4194370317794E-02
(PID.TID 0000.0001) %MON dynstat_vvel_min             =  -3.4788502722054E-03
(PID.TID 0000.0001) %MON dynstat_vvel_mean            =   1.1437194617103E-07
(PID.TID 0000.0001) %MON dynstat_vvel_sd              =   3.2933667482045E-03
(PID.TID 0000.0001) %MON dynstat_vvel_del2            =   4.4910815854897E-07
(PID.TID 0000.0001) %MON dynstat_wvel_max             =   2.6843825350225E-08
(PID.TID 0000.0001) %MON dynstat_wvel_min             =  -1.0905244917307E-08
(PID.TID 0000.0001) %MON dynstat_wvel_mean            =  -1.4215650467719E-22
(PID.TID 0000.0001) %MON dynstat_wvel_sd              =   1.0566214766428E-08
(PID.TID 0000.0001) %MON dynstat_wvel_del2            =   1.1127843514181E-13
(PID.TID 0000.0001) %MON dynstat_theta_max            =   2.0000000000000E+01
(PID.TID 0000.0001) %MON dynstat_theta_min            =   2.0000000000000E+01
(PID.TID 0000.0001) %MON dynstat_theta_mean           =   1.9999999999999E+01
(PID.TID 0000.0001) %MON dynstat_theta_sd             =   1.1972645097557E-12
(PID.TID 0000.0001) %MON dynstat_theta_del2           =   0.0000000000000E+00
(PID.TID 0000.0001) %MON dynstat_salt_max             =   3.0000000000000E+01
(PID.TID 0000.0001) %MON dynstat_salt_min             =   3.0000000000000E+01
(PID.TID 0000.0001) %MON dynstat_salt_mean            =   2.9999999999998E+01
(PID.TID 0000.0001) %MON dynstat_salt_sd              =   2.1529444893531E-12
(PID.TID 0000.0001) %MON dynstat_salt_del2            =   0.0000000000000E+00
(PID.TID 0000.0001) %MON trAdv_CFL_u_max              =   7.0105102405976E-03
(PID.TID 0000.0001) %MON trAdv_CFL_v_max              =   1.5129884990064E-02
(PID.TID 0000.0001) %MON trAdv_CFL_w_max              =   3.0799788477457E-08
(PID.TID 0000.0001) %MON advcfl_uvel_max              =   7.0941762905613E-03
(PID.TID 0000.0001) %MON advcfl_vvel_max              =   1.5329919943217E-02
(PID.TID 0000.0001) %MON advcfl_wvel_max              =   5.7982662756485E-08
(PID.TID 0000.0001) %MON advcfl_W_hf_max              =   0.0000000000000E+00
(PID.TID 0000.0001) %MON pe_b_mean                    =   3.1844985060634E-08
(PID.TID 0000.0001) %MON ke_max                       =   1.0073561335746E-04
(PID.TID 0000.0001) %MON ke_mean                      =   9.3570664436507E-06
(PID.TID 0000.0001) %MON ke_vol                       =   7.2529629296391E+15
(PID.TID 0000.0001) %MON vort_r_min                   =  -8.1195230461294E-08
(PID.TID 0000.0001) %MON vort_r_max                   =   9.5055727260912E-07
(PID.TID 0000.0001) %MON vort_a_mean                  =   8.2299999999999E-05
(PID.TID 0000.0001) %MON vort_a_sd                    =   7.1301088786276E-06
(PID.TID 0000.0001) %MON vort_p_mean                  =   8.6919888360246E-05
(PID.TID 0000.0001) %MON vort_p_sd                    =   1.7860328104430E-05
(PID.TID 0000.0001) %MON surfExpan_theta_mean         =  -2.8193832283606E-21
(PID.TID 0000.0001) %MON surfExpan_salt_mean          =  -4.5482155655257E-21
(PID.TID 0000.0001) // =======================================================
(PID.TID 0000.0001) // End MONITOR dynamic field statistics
(PID.TID 0000.0001) // =======================================================
 cg2d: Sum(rhs),rhsMax =  -1.12372322558230E-09  2.54000637369967E-03
 cg2d: Sum(rhs),rhsMax =  -1.16226234192496E-09  2.56676770177399E-03
 cg2d: Sum(rhs),rhsMax =  -1.20559832256228E-09  2.59354702156983E-03
 cg2d: Sum(rhs),rhsMax =  -1.24279201513255E-09  2.62031989153409E-03
(PID.TID 0000.0001) %CHECKPOINT       100 ckptA
(PID.TID 0000.0001)   Seconds in section "ALL                    [THE_MODEL_MAIN]":
(PID.TID 0000.0001)           User time:   69.2521506473422
(PID.TID 0000.0001)         System time:  0.000000000000000E+000
(PID.TID 0000.0001)     Wall clock time:   69.7972919940948
(PID.TID 0000.0001)          No. starts:           1
(PID.TID 0000.0001)           No. stops:           1
(PID.TID 0000.0001)   Seconds in section "INITIALISE_FIXED       [THE_MODEL_MAIN]":
(PID.TID 0000.0001)           User time:  0.116982005536556
(PID.TID 0000.0001)         System time:  0.000000000000000E+000
(PID.TID 0000.0001)     Wall clock time:  0.336695194244385
(PID.TID 0000.0001)          No. starts:           1
(PID.TID 0000.0001)           No. stops:           1
(PID.TID 0000.0001)   Seconds in section "THE_MAIN_LOOP          [THE_MODEL_MAIN]":
(PID.TID 0000.0001)           User time:   69.1351346522570
(PID.TID 0000.0001)         System time:  0.000000000000000E+000
(PID.TID 0000.0001)     Wall clock time:   69.4605360031128
(PID.TID 0000.0001)          No. starts:           1
(PID.TID 0000.0001)           No. stops:           1
(PID.TID 0000.0001)   Seconds in section "INITIALISE_VARIA    [THE_MAIN_LOOP]":
(PID.TID 0000.0001)           User time:  3.583200275897980E-002
(PID.TID 0000.0001)         System time:  0.000000000000000E+000
(PID.TID 0000.0001)     Wall clock time:  0.112993955612183
(PID.TID 0000.0001)          No. starts:           1
(PID.TID 0000.0001)           No. stops:           1
(PID.TID 0000.0001)   Seconds in section "MAIN LOOP           [THE_MAIN_LOOP]":
(PID.TID 0000.0001)           User time:   69.0992646515369
(PID.TID 0000.0001)         System time:  0.000000000000000E+000
(PID.TID 0000.0001)     Wall clock time:   69.3474678993225
(PID.TID 0000.0001)          No. starts:           1
(PID.TID 0000.0001)           No. stops:           1
(PID.TID 0000.0001)   Seconds in section "MAIN_DO_LOOP        [THE_MAIN_LOOP]":
(PID.TID 0000.0001)           User time:   69.0982928723097
(PID.TID 0000.0001)         System time:  0.000000000000000E+000
(PID.TID 0000.0001)     Wall clock time:   69.3464379310608
(PID.TID 0000.0001)          No. starts:         100
(PID.TID 0000.0001)           No. stops:         100
(PID.TID 0000.0001)   Seconds in section "FORWARD_STEP        [MAIN_DO_LOOP]":
(PID.TID 0000.0001)           User time:   69.0961948335171
(PID.TID 0000.0001)         System time:  0.000000000000000E+000
(PID.TID 0000.0001)     Wall clock time:   69.3442876338959
(PID.TID 0000.0001)          No. starts:         100
(PID.TID 0000.0001)           No. stops:         100
(PID.TID 0000.0001)   Seconds in section "LOAD_FIELDS_DRIVER  [FORWARD_STEP]":
(PID.TID 0000.0001)           User time:  3.104463219642639E-003
(PID.TID 0000.0001)         System time:  0.000000000000000E+000
(PID.TID 0000.0001)     Wall clock time:  3.181219100952148E-003
(PID.TID 0000.0001)          No. starts:         100
(PID.TID 0000.0001)           No. stops:         100
(PID.TID 0000.0001)   Seconds in section "EXTERNAL_FLDS_LOAD [LOAD_FLDS_DRIVER]":
(PID.TID 0000.0001)           User time:  1.010328531265259E-003
(PID.TID 0000.0001)         System time:  0.000000000000000E+000
(PID.TID 0000.0001)     Wall clock time:  1.033306121826172E-003
(PID.TID 0000.0001)          No. starts:         100
(PID.TID 0000.0001)           No. stops:         100
(PID.TID 0000.0001)   Seconds in section "DO_ATMOSPHERIC_PHYS [FORWARD_STEP]":
(PID.TID 0000.0001)           User time:  1.032263040542603E-003
(PID.TID 0000.0001)         System time:  0.000000000000000E+000
(PID.TID 0000.0001)     Wall clock time:  1.040458679199219E-003
(PID.TID 0000.0001)          No. starts:         100
(PID.TID 0000.0001)           No. stops:         100
(PID.TID 0000.0001)   Seconds in section "DO_OCEANIC_PHYS     [FORWARD_STEP]":
(PID.TID 0000.0001)           User time:  0.189966008067131
(PID.TID 0000.0001)         System time:  0.000000000000000E+000
(PID.TID 0000.0001)     Wall clock time:  0.195918083190918
(PID.TID 0000.0001)          No. starts:         100
(PID.TID 0000.0001)           No. stops:         100
(PID.TID 0000.0001)   Seconds in section "THERMODYNAMICS      [FORWARD_STEP]":
(PID.TID 0000.0001)           User time:  0.100444346666336
(PID.TID 0000.0001)         System time:  0.000000000000000E+000
(PID.TID 0000.0001)     Wall clock time:  0.100903511047363
(PID.TID 0000.0001)          No. starts:         100
(PID.TID 0000.0001)           No. stops:         100
(PID.TID 0000.0001)   Seconds in section "DYNAMICS            [FORWARD_STEP]":
(PID.TID 0000.0001)           User time:   2.34318967163563
(PID.TID 0000.0001)         System time:  0.000000000000000E+000
(PID.TID 0000.0001)     Wall clock time:   2.35587835311890
(PID.TID 0000.0001)          No. starts:         100
(PID.TID 0000.0001)           No. stops:         100
(PID.TID 0000.0001)   Seconds in section "SOLVE_FOR_PRESSURE  [FORWARD_STEP]":
(PID.TID 0000.0001)           User time:   66.0926342755556
(PID.TID 0000.0001)         System time:  0.000000000000000E+000
(PID.TID 0000.0001)     Wall clock time:   66.1410739421844
(PID.TID 0000.0001)          No. starts:         100
(PID.TID 0000.0001)           No. stops:         100
(PID.TID 0000.0001)   Seconds in section "MOM_CORRECTION_STEP [FORWARD_STEP]":
(PID.TID 0000.0001)           User time:  0.163562774658203
(PID.TID 0000.0001)         System time:  0.000000000000000E+000
(PID.TID 0000.0001)     Wall clock time:  0.165793180465698
(PID.TID 0000.0001)          No. starts:         100
(PID.TID 0000.0001)           No. stops:         100
(PID.TID 0000.0001)   Seconds in section "INTEGR_CONTINUITY   [FORWARD_STEP]":
(PID.TID 0000.0001)           User time:  0.103129208087921
(PID.TID 0000.0001)         System time:  0.000000000000000E+000
(PID.TID 0000.0001)     Wall clock time:  0.104480743408203
(PID.TID 0000.0001)          No. starts:         100
(PID.TID 0000.0001)           No. stops:         100
(PID.TID 0000.0001)   Seconds in section "TRC_CORRECTION_STEP [FORWARD_STEP]":
(PID.TID 0000.0001)           User time:  1.043617725372314E-003
(PID.TID 0000.0001)         System time:  0.000000000000000E+000
(PID.TID 0000.0001)     Wall clock time:  1.072406768798828E-003
(PID.TID 0000.0001)          No. starts:         100
(PID.TID 0000.0001)           No. stops:         100
(PID.TID 0000.0001)   Seconds in section "BLOCKING_EXCHANGES  [FORWARD_STEP]":
(PID.TID 0000.0001)           User time:  1.116675138473511E-002
(PID.TID 0000.0001)         System time:  0.000000000000000E+000
(PID.TID 0000.0001)     Wall clock time:  1.133990287780762E-002
(PID.TID 0000.0001)          No. starts:         100
(PID.TID 0000.0001)           No. stops:         100
(PID.TID 0000.0001)   Seconds in section "MONITOR             [FORWARD_STEP]":
(PID.TID 0000.0001)           User time:  6.744080781936646E-002
(PID.TID 0000.0001)         System time:  0.000000000000000E+000
(PID.TID 0000.0001)     Wall clock time:  7.869648933410645E-002
(PID.TID 0000.0001)          No. starts:         100
(PID.TID 0000.0001)           No. stops:         100
(PID.TID 0000.0001)   Seconds in section "DO_THE_MODEL_IO     [FORWARD_STEP]":
(PID.TID 0000.0001)           User time:  1.082479953765869E-003
(PID.TID 0000.0001)         System time:  0.000000000000000E+000
(PID.TID 0000.0001)     Wall clock time:  8.181905746459961E-002
(PID.TID 0000.0001)          No. starts:         100
(PID.TID 0000.0001)           No. stops:         100
(PID.TID 0000.0001)   Seconds in section "DO_WRITE_PICKUP     [FORWARD_STEP]":
(PID.TID 0000.0001)           User time:  1.044988632202148E-003
(PID.TID 0000.0001)         System time:  0.000000000000000E+000
(PID.TID 0000.0001)     Wall clock time:  8.787035942077637E-002
(PID.TID 0000.0001)          No. starts:         100
(PID.TID 0000.0001)           No. stops:         100
(PID.TID 0000.0001) // ======================================================
(PID.TID 0000.0001) // Tile <-> Tile communication statistics
(PID.TID 0000.0001) // ======================================================
(PID.TID 0000.0001) // o Tile number: 000001
(PID.TID 0000.0001) //         No. X exchanges =              0
(PID.TID 0000.0001) //            Max. X spins =              0
(PID.TID 0000.0001) //            Min. X spins =     1000000000
(PID.TID 0000.0001) //          Total. X spins =              0
(PID.TID 0000.0001) //            Avg. X spins =       0.00E+00
(PID.TID 0000.0001) //         No. Y exchanges =              0
(PID.TID 0000.0001) //            Max. Y spins =              0
(PID.TID 0000.0001) //            Min. Y spins =     1000000000
(PID.TID 0000.0001) //          Total. Y spins =              0
(PID.TID 0000.0001) //            Avg. Y spins =       0.00E+00
(PID.TID 0000.0001) // o Thread number: 000001
(PID.TID 0000.0001) //            No. barriers =         346620
(PID.TID 0000.0001) //      Max. barrier spins =              1
(PID.TID 0000.0001) //      Min. barrier spins =              1
(PID.TID 0000.0001) //     Total barrier spins =         346620
(PID.TID 0000.0001) //      Avg. barrier spins =       1.00E+00
PROGRAM MAIN: Execution ended Normally
