(PID.TID 0000.0001) 
(PID.TID 0000.0001) // ======================================================
(PID.TID 0000.0001) //                      MITgcm UV
(PID.TID 0000.0001) //                      =========
(PID.TID 0000.0001) // ======================================================
(PID.TID 0000.0001) // execution environment starting up...
(PID.TID 0000.0001) 
(PID.TID 0000.0001) // MITgcmUV version:  checkpoint67v
(PID.TID 0000.0001) // Build user:        eavesr
(PID.TID 0000.0001) // Build host:        atmlxint3
(PID.TID 0000.0001) // Build date:        Thu 18 Feb 15:12:49 GMT 2021
(PID.TID 0000.0001) 
(PID.TID 0000.0001) // =======================================================
(PID.TID 0000.0001) // Execution Environment parameter file "eedata"
(PID.TID 0000.0001) // =======================================================
(PID.TID 0000.0001) ># Example "eedata" file
(PID.TID 0000.0001) ># Lines beginning "#" are comments
(PID.TID 0000.0001) >#  nTx      :: No. threads per process in X
(PID.TID 0000.0001) >#  nTy      :: No. threads per process in Y
(PID.TID 0000.0001) ># debugMode :: print debug msg (sequence of S/R calls)
(PID.TID 0000.0001) > &EEPARMS
(PID.TID 0000.0001) > nTx=1,
(PID.TID 0000.0001) > nTy=1,
(PID.TID 0000.0001) > &
(PID.TID 0000.0001) ># Note: Some systems use & as the namelist terminator (as shown here).
(PID.TID 0000.0001) >#       Other systems use a / character.
(PID.TID 0000.0001) 
(PID.TID 0000.0001) // =======================================================
(PID.TID 0000.0001) // Computational Grid Specification ( see files "SIZE.h" )
(PID.TID 0000.0001) //                                  ( and "eedata"       )
(PID.TID 0000.0001) // =======================================================
(PID.TID 0000.0001)      nPx =    1 ; /* No. processes in X */
(PID.TID 0000.0001)      nPy =    1 ; /* No. processes in Y */
(PID.TID 0000.0001)      nSx =    1 ; /* No. tiles in X per process */
(PID.TID 0000.0001)      nSy =    1 ; /* No. tiles in Y per process */
(PID.TID 0000.0001)      sNx =  248 ; /* Tile size in X */
(PID.TID 0000.0001)      sNy =  248 ; /* Tile size in Y */
(PID.TID 0000.0001)      OLx =    2 ; /* Tile overlap distance in X */
(PID.TID 0000.0001)      OLy =    2 ; /* Tile overlap distance in Y */
(PID.TID 0000.0001)      nTx =    1 ; /* No. threads in X per process */
(PID.TID 0000.0001)      nTy =    1 ; /* No. threads in Y per process */
(PID.TID 0000.0001)       Nr =    1 ; /* No. levels in the vertical   */
(PID.TID 0000.0001)       Nx =  248 ; /* Total domain size in X ( = nPx*nSx*sNx ) */
(PID.TID 0000.0001)       Ny =  248 ; /* Total domain size in Y ( = nPy*nSy*sNy ) */
(PID.TID 0000.0001)   nTiles =    1 ; /* Total no. tiles per process ( = nSx*nSy ) */
(PID.TID 0000.0001)   nProcs =    1 ; /* Total no. processes ( = nPx*nPy ) */
(PID.TID 0000.0001) nThreads =    1 ; /* Total no. threads per process ( = nTx*nTy ) */
(PID.TID 0000.0001) usingMPI =    F ; /* Flag used to control whether MPI is in use */
(PID.TID 0000.0001)                   /*  note: To execute a program with MPI calls */
(PID.TID 0000.0001)                   /*  it must be launched appropriately e.g     */
(PID.TID 0000.0001)                   /*  "mpirun -np 64 ......"                    */
(PID.TID 0000.0001) useCoupler=   F ; /* Flag used to control communications with   */
(PID.TID 0000.0001)                   /*  other model components, through a coupler */
(PID.TID 0000.0001) useNest2W_parent =    F ;/* Control 2-W Nesting comm */
(PID.TID 0000.0001) useNest2W_child  =    F ;/* Control 2-W Nesting comm */
(PID.TID 0000.0001) debugMode =    F ; /* print debug msg. (sequence of S/R calls)  */
(PID.TID 0000.0001) printMapIncludesZeros=    F ; /* print zeros in Std.Output maps */
(PID.TID 0000.0001) maxLengthPrt1D=   65 /* maxLength of 1D array printed to StdOut */
(PID.TID 0000.0001) 
(PID.TID 0000.0001) // ======================================================
(PID.TID 0000.0001) // Mapping of tiles to threads
(PID.TID 0000.0001) // ======================================================
(PID.TID 0000.0001) // -o- Thread   1, tiles (   1:   1,   1:   1)
(PID.TID 0000.0001) 
(PID.TID 0000.0001) // ======================================================
(PID.TID 0000.0001) // Tile <-> Tile connectvity table
(PID.TID 0000.0001) // ======================================================
(PID.TID 0000.0001) // Tile number: 000001 (process no. = 000000)
(PID.TID 0000.0001) //        WEST: Tile = 000001, Process = 000000, Comm = put
(PID.TID 0000.0001) //                bi = 000001, bj = 000001
(PID.TID 0000.0001) //        EAST: Tile = 000001, Process = 000000, Comm = put
(PID.TID 0000.0001) //                bi = 000001, bj = 000001
(PID.TID 0000.0001) //       SOUTH: Tile = 000001, Process = 000000, Comm = put
(PID.TID 0000.0001) //                bi = 000001, bj = 000001
(PID.TID 0000.0001) //       NORTH: Tile = 000001, Process = 000000, Comm = put
(PID.TID 0000.0001) //                bi = 000001, bj = 000001
(PID.TID 0000.0001) 
(PID.TID 0000.0001)  INI_PARMS: opening model parameter file "data"
(PID.TID 0000.0001)  OPEN_COPY_DATA_FILE: opening file data
(PID.TID 0000.0001) // =======================================================
(PID.TID 0000.0001) // Parameter file "data"
(PID.TID 0000.0001) // =======================================================
(PID.TID 0000.0001) ># Model parameters
(PID.TID 0000.0001) ># Continuous equation parameters
(PID.TID 0000.0001) > &PARM01
(PID.TID 0000.0001) > viscAh=4.E2,
(PID.TID 0000.0001) > f0=0.7E-4,
(PID.TID 0000.0001) > beta=2.E-11,
(PID.TID 0000.0001) > rhoConst=1027.,
(PID.TID 0000.0001) > gBaro=9.81,
(PID.TID 0000.0001) > rigidLid=.FALSE.,
(PID.TID 0000.0001) > implicitFreeSurface=.TRUE.,
(PID.TID 0000.0001) ># momAdvection=.FALSE.,
(PID.TID 0000.0001) > tempStepping=.FALSE.,
(PID.TID 0000.0001) > saltStepping=.FALSE.,
(PID.TID 0000.0001) > useSingleCpuIO=.TRUE.,
(PID.TID 0000.0001) > hFacMin=0.1,
(PID.TID 0000.0001) > &
(PID.TID 0000.0001) >
(PID.TID 0000.0001) ># Elliptic solver parameters
(PID.TID 0000.0001) > &PARM02
(PID.TID 0000.0001) > cg2dTargetResidual=1.E-7,
(PID.TID 0000.0001) > cg2dMaxIters=1000,
(PID.TID 0000.0001) > &
(PID.TID 0000.0001) >
(PID.TID 0000.0001) ># Time stepping parameters
(PID.TID 0000.0001) > &PARM03
(PID.TID 0000.0001) > nIter0=0,
(PID.TID 0000.0001) > nTimeSteps=480,
(PID.TID 0000.0001) > deltaT=5400.0,
(PID.TID 0000.0001) > pChkptFreq=31104000.0,
(PID.TID 0000.0001) > chkptFreq=25920000.0,
(PID.TID 0000.0001) > dumpFreq=86400.0,
(PID.TID 0000.0001) > monitorFreq=86400.,
(PID.TID 0000.0001) > monitorSelect=2,
(PID.TID 0000.0001) >#-for longer run (3.0 yr):
(PID.TID 0000.0001) ># nTimeSteps=77760,
(PID.TID 0000.0001) ># monitorFreq=864000.,
(PID.TID 0000.0001) > &
(PID.TID 0000.0001) >
(PID.TID 0000.0001) ># Gridding parameters
(PID.TID 0000.0001) > &PARM04
(PID.TID 0000.0001) > usingCartesianGrid=.TRUE.,
(PID.TID 0000.0001) > delX=248*5.E3,
(PID.TID 0000.0001) > delY=248*5.E3,
(PID.TID 0000.0001) > xgOrigin=-5.E3,
(PID.TID 0000.0001) > ygOrigin=-5.E3,
(PID.TID 0000.0001) > delR=5000.,
(PID.TID 0000.0001) > &
(PID.TID 0000.0001) >
(PID.TID 0000.0001) ># Input datasets
(PID.TID 0000.0001) > &PARM05
(PID.TID 0000.0001) > bathyFile='bathy.bin'
(PID.TID 0000.0001) > zonalWindFile='wind.bin',
(PID.TID 0000.0001) >#zonalWindFile='windx_siny.bin',
(PID.TID 0000.0001) > meridWindFile=,
(PID.TID 0000.0001) > &
(PID.TID 0000.0001) 
(PID.TID 0000.0001)  INI_PARMS ; starts to read PARM01
(PID.TID 0000.0001)  INI_PARMS ; read PARM01 : OK
(PID.TID 0000.0001)  INI_PARMS ; starts to read PARM02
(PID.TID 0000.0001)  INI_PARMS ; read PARM02 : OK
(PID.TID 0000.0001)  INI_PARMS ; starts to read PARM03
(PID.TID 0000.0001)  INI_PARMS ; read PARM03 : OK
(PID.TID 0000.0001)  INI_PARMS ; starts to read PARM04
(PID.TID 0000.0001)  INI_PARMS ; read PARM04 : OK
(PID.TID 0000.0001)  INI_PARMS ; starts to read PARM05
(PID.TID 0000.0001)  INI_PARMS ; read PARM05 : OK
(PID.TID 0000.0001)  INI_PARMS: finished reading file "data"
(PID.TID 0000.0001)  PACKAGES_BOOT: opening data.pkg
(PID.TID 0000.0001)  OPEN_COPY_DATA_FILE: opening file data.pkg
(PID.TID 0000.0001) // =======================================================
(PID.TID 0000.0001) // Parameter file "data.pkg"
(PID.TID 0000.0001) // =======================================================
(PID.TID 0000.0001) ># Packages
(PID.TID 0000.0001) > &PACKAGES
(PID.TID 0000.0001) > &
(PID.TID 0000.0001) 
(PID.TID 0000.0001)  PACKAGES_BOOT: finished reading data.pkg
(PID.TID 0000.0001)  PACKAGES_BOOT: On/Off package Summary
 --------  pkgs with a standard "usePKG" On/Off switch in "data.pkg":  --------
 -------- pkgs without standard "usePKG" On/Off switch in "data.pkg":  --------
 pkg/generic_advdiff      compiled but not used ( useGAD                   = F )
 pkg/mom_common           compiled   and   used ( momStepping              = T )
 pkg/mom_vecinv           compiled but not used ( +vectorInvariantMomentum = F )
 pkg/mom_fluxform         compiled   and   used ( & not vectorInvariantMom = T )
 pkg/monitor              compiled   and   used ( monitorFreq > 0.         = T )
 pkg/debug                compiled but not used ( debugMode                = F )
 pkg/rw                   compiled   and   used
 pkg/mdsio                compiled   and   used
(PID.TID 0000.0001)  PACKAGES_BOOT: End of package Summary
(PID.TID 0000.0001) 
(PID.TID 0000.0001) SET_PARMS: done
(PID.TID 0000.0001) Enter INI_VERTICAL_GRID: setInterFDr=    T ; setCenterDr=    F
(PID.TID 0000.0001) %MON XC_max                       =   1.2325000000000E+06
(PID.TID 0000.0001) %MON XC_min                       =  -2.5000000000000E+03
(PID.TID 0000.0001) %MON XC_mean                      =   6.1500000000000E+05
(PID.TID 0000.0001) %MON XC_sd                        =   3.5795425685414E+05
(PID.TID 0000.0001) %MON XG_max                       =   1.2300000000000E+06
(PID.TID 0000.0001) %MON XG_min                       =  -5.0000000000000E+03
(PID.TID 0000.0001) %MON XG_mean                      =   6.1250000000000E+05
(PID.TID 0000.0001) %MON XG_sd                        =   3.5795425685414E+05
(PID.TID 0000.0001) %MON DXC_max                      =   5.0000000000000E+03
(PID.TID 0000.0001) %MON DXC_min                      =   5.0000000000000E+03
(PID.TID 0000.0001) %MON DXC_mean                     =   5.0000000000000E+03
(PID.TID 0000.0001) %MON DXC_sd                       =   9.0949470177293E-13
(PID.TID 0000.0001) %MON DXF_max                      =   5.0000000000000E+03
(PID.TID 0000.0001) %MON DXF_min                      =   5.0000000000000E+03
(PID.TID 0000.0001) %MON DXF_mean                     =   5.0000000000000E+03
(PID.TID 0000.0001) %MON DXF_sd                       =   9.0949470177293E-13
(PID.TID 0000.0001) %MON DXG_max                      =   5.0000000000000E+03
(PID.TID 0000.0001) %MON DXG_min                      =   5.0000000000000E+03
(PID.TID 0000.0001) %MON DXG_mean                     =   5.0000000000000E+03
(PID.TID 0000.0001) %MON DXG_sd                       =   9.0949470177293E-13
(PID.TID 0000.0001) %MON DXV_max                      =   5.0000000000000E+03
(PID.TID 0000.0001) %MON DXV_min                      =   5.0000000000000E+03
(PID.TID 0000.0001) %MON DXV_mean                     =   5.0000000000000E+03
(PID.TID 0000.0001) %MON DXV_sd                       =   9.0949470177293E-13
(PID.TID 0000.0001) %MON YC_max                       =   1.2325000000000E+06
(PID.TID 0000.0001) %MON YC_min                       =  -2.5000000000000E+03
(PID.TID 0000.0001) %MON YC_mean                      =   6.1500000000000E+05
(PID.TID 0000.0001) %MON YC_sd                        =   3.5795425685414E+05
(PID.TID 0000.0001) %MON YG_max                       =   1.2300000000000E+06
(PID.TID 0000.0001) %MON YG_min                       =  -5.0000000000000E+03
(PID.TID 0000.0001) %MON YG_mean                      =   6.1250000000000E+05
(PID.TID 0000.0001) %MON YG_sd                        =   3.5795425685414E+05
(PID.TID 0000.0001) %MON DYC_max                      =   5.0000000000000E+03
(PID.TID 0000.0001) %MON DYC_min                      =   5.0000000000000E+03
(PID.TID 0000.0001) %MON DYC_mean                     =   5.0000000000000E+03
(PID.TID 0000.0001) %MON DYC_sd                       =   9.0949470177293E-13
(PID.TID 0000.0001) %MON DYF_max                      =   5.0000000000000E+03
(PID.TID 0000.0001) %MON DYF_min                      =   5.0000000000000E+03
(PID.TID 0000.0001) %MON DYF_mean                     =   5.0000000000000E+03
(PID.TID 0000.0001) %MON DYF_sd                       =   9.0949470177293E-13
(PID.TID 0000.0001) %MON DYG_max                      =   5.0000000000000E+03
(PID.TID 0000.0001) %MON DYG_min                      =   5.0000000000000E+03
(PID.TID 0000.0001) %MON DYG_mean                     =   5.0000000000000E+03
(PID.TID 0000.0001) %MON DYG_sd                       =   9.0949470177293E-13
(PID.TID 0000.0001) %MON DYU_max                      =   5.0000000000000E+03
(PID.TID 0000.0001) %MON DYU_min                      =   5.0000000000000E+03
(PID.TID 0000.0001) %MON DYU_mean                     =   5.0000000000000E+03
(PID.TID 0000.0001) %MON DYU_sd                       =   9.0949470177293E-13
(PID.TID 0000.0001) %MON RA_max                       =   2.5000000000000E+07
(PID.TID 0000.0001) %MON RA_min                       =   2.5000000000000E+07
(PID.TID 0000.0001) %MON RA_mean                      =   2.5000000000000E+07
(PID.TID 0000.0001) %MON RA_sd                        =   3.7252902984619E-09
(PID.TID 0000.0001) %MON RAW_max                      =   2.5000000000000E+07
(PID.TID 0000.0001) %MON RAW_min                      =   2.5000000000000E+07
(PID.TID 0000.0001) %MON RAW_mean                     =   2.5000000000000E+07
(PID.TID 0000.0001) %MON RAW_sd                       =   3.7252902984619E-09
(PID.TID 0000.0001) %MON RAS_max                      =   2.5000000000000E+07
(PID.TID 0000.0001) %MON RAS_min                      =   2.5000000000000E+07
(PID.TID 0000.0001) %MON RAS_mean                     =   2.5000000000000E+07
(PID.TID 0000.0001) %MON RAS_sd                       =   3.7252902984619E-09
(PID.TID 0000.0001) %MON RAZ_max                      =   2.5000000000000E+07
(PID.TID 0000.0001) %MON RAZ_min                      =   2.5000000000000E+07
(PID.TID 0000.0001) %MON RAZ_mean                     =   2.5000000000000E+07
(PID.TID 0000.0001) %MON RAZ_sd                       =   3.7252902984619E-09
(PID.TID 0000.0001) %MON AngleCS_max                  =   1.0000000000000E+00
(PID.TID 0000.0001) %MON AngleCS_min                  =   1.0000000000000E+00
(PID.TID 0000.0001) %MON AngleCS_mean                 =   1.0000000000000E+00
(PID.TID 0000.0001) %MON AngleCS_sd                   =   0.0000000000000E+00
(PID.TID 0000.0001) %MON AngleSN_max                  =   0.0000000000000E+00
(PID.TID 0000.0001) %MON AngleSN_min                  =   0.0000000000000E+00
(PID.TID 0000.0001) %MON AngleSN_mean                 =   0.0000000000000E+00
(PID.TID 0000.0001) %MON AngleSN_sd                   =   0.0000000000000E+00
(PID.TID 0000.0001)  MDS_READ_FIELD: opening global file: bathy.bin
(PID.TID 0000.0001) // =======================================================
(PID.TID 0000.0001) // Field Model R_low (ini_masks_etc)
(PID.TID 0000.0001) // CMIN =         -4.999819335937500E+03
(PID.TID 0000.0001) // CMAX =         -4.500020019531250E+03
(PID.TID 0000.0001) // CINT =          1.851108579282407E+01
(PID.TID 0000.0001) // SYMBOLS (CMIN->CMAX): -abcdefghijklmnopqrstuvwxyz+
(PID.TID 0000.0001) //                  0.0: .
(PID.TID 0000.0001) // RANGE I (Lo:Hi:Step):(    -1:   250:     1)
(PID.TID 0000.0001) // RANGE J (Lo:Hi:Step):(   250:    -1:    -1)
(PID.TID 0000.0001) // RANGE K (Lo:Hi:Step):(   1:   1:   1)
(PID.TID 0000.0001) // =======================================================
(PID.TID 0000.0001) K =   1
(PID.TID 0000.0001) //                I=8       I=18      I=28      I=38      I=48      I=58      I=68      I=78      I=88      I=98      I=108     I=118     I=128     I=138     I=148     I=158     I=168     I=178     I=188     I=198     I=208     I=218     I=228     I=238     I=248
(PID.TID 0000.0001) // |--J--|101234567|901234567|901234567|901234567|901234567|901234567|901234567|901234567|901234567|901234567|901234567|901234567|901234567|901234567|901234567|901234567|901234567|901234567|901234567|901234567|901234567|901234567|901234567|901234567|901234567|90
(PID.TID 0000.0001) //    250 -..------------------------------------------------------------------------------------------------------------------aaaaaaaaaaaaaaaaaa------------------------------------------------------------------------------------------------------------------..-
(PID.TID 0000.0001) //    249 ............................................................................................................................................................................................................................................................
(PID.TID 0000.0001) //    248 ............................................................................................................................................................................................................................................................
(PID.TID 0000.0001) //    247 -..------------------------------------------------------------------------------------------------------------------aaaaaaaaaaaaaaaaaa------------------------------------------------------------------------------------------------------------------..-
(PID.TID 0000.0001) //    246 -..-------------------------------------------------aaaaaaaaaaaaaaaaaaaaaaaaaaaaaaaaaaaaaaaaaaaaaaaaaaaaaaaaaaaaaaaaaaaaaaaaaaaaaaaaaaaaaaaaaaaaaaaaaaaaaaaaaaaaaaaaaaaaaaaaaaaaaaaaaaaaaaaaaaaaaaaaaaaa-------------------------------------------------..-
(PID.TID 0000.0001) //    245 -..----------------------------------aaaaaaaaaaaaaaaaaaaaaaaaaaaaaaaaaaaaaaaaaaaaaaaaaaaaaaaaaaaaaaaaaaaaaaaaaaaaaaaaaaaaaaaaaaaaaaaaaaaaaaaaaaaaaaaaaaaaaaaaaaaaaaaaaaaaaaaaaaaaaaaaaaaaaaaaaaaaaaaaaaaaaaaaaaaaaaaaaa----------------------------------..-
(PID.TID 0000.0001) //    244 -..--------------------------aaaaaaaaaaaaaaaaaaaaaaaaaaaaaaaaaaaaaaaaaaaaaaaaaaaaaaaaaaaaaaaaaaaaaaaaaaaaaaaaaabbbbbbbbbbbbbbbbbbbbbbbbbbbbbbaaaaaaaaaaaaaaaaaaaaaaaaaaaaaaaaaaaaaaaaaaaaaaaaaaaaaaaaaaaaaaaaaaaaaaaaaaaaaaaaaa--------------------------..-
(PID.TID 0000.0001) //    243 -..---------------------aaaaaaaaaaaaaaaaaaaaaaaaaaaaaaaaaaaaaaaaaaaaaaaaaaaabbbbbbbbbbbbbbbbbbbbbbbbbbbbbbbbbbbbbbbbbbbbbbbbbbbbbbbbbbbbbbbbbbbbbbbbbbbbbbbbbbbbbbbbbbbbbbbbbbbbaaaaaaaaaaaaaaaaaaaaaaaaaaaaaaaaaaaaaaaaaaaaaaaaaaaa---------------------..-
(PID.TID 0000.0001) //    242 -..-----------------aaaaaaaaaaaaaaaaaaaaaaaaaaaaaaaaaaaaaaaaabbbbbbbbbbbbbbbbbbbbbbbbbbbbbbbbbbbbbbbbbbbbbbbbbbbbbbbbbbbbbbbbbbbbbbbbbbbbbbbbbbbbbbbbbbbbbbbbbbbbbbbbbbbbbbbbbbbbbbbbbbbbbbbbbbaaaaaaaaaaaaaaaaaaaaaaaaaaaaaaaaaaaaaaaaa-----------------..-
(PID.TID 0000.0001) //    241 -..---------------aaaaaaaaaaaaaaaaaaaaaaaaaaaaaaaaaabbbbbbbbbbbbbbbbbbbbbbbbbbbbbbbbbbbbbbbbbbbbbbbbbbbbbbbbbbccccccccccccccccccccccccccccccccbbbbbbbbbbbbbbbbbbbbbbbbbbbbbbbbbbbbbbbbbbbbbbbbbbbbbbbbbbaaaaaaaaaaaaaaaaaaaaaaaaaaaaaaaaaa---------------..-
(PID.TID 0000.0001) //    240 -..-------------aaaaaaaaaaaaaaaaaaaaaaaaaaaaabbbbbbbbbbbbbbbbbbbbbbbbbbbbbbbbbbbbbbbccccccccccccccccccccccccccccccccccccccccccccccccccccccccccccccccccccccccccccccccccccbbbbbbbbbbbbbbbbbbbbbbbbbbbbbbbbbbbbbbbaaaaaaaaaaaaaaaaaaaaaaaaaaaaa-------------..-
(PID.TID 0000.0001) //    239 -..-----------aaaaaaaaaaaaaaaaaaaaaaaaaabbbbbbbbbbbbbbbbbbbbbbbbbbbbbbbbccccccccccccccccccccccccccccccccccccccccccccccccccccccccccccccccccccccccccccccccccccccccccccccccccccccccccccbbbbbbbbbbbbbbbbbbbbbbbbbbbbbbbbaaaaaaaaaaaaaaaaaaaaaaaaaa-----------..-
(PID.TID 0000.0001) //    238 -..----------aaaaaaaaaaaaaaaaaaaaaaabbbbbbbbbbbbbbbbbbbbbbbbbbbcccccccccccccccccccccccccccccccccccccccccccccccddddddddddddddddddddddddddddddddcccccccccccccccccccccccccccccccccccccccccccccccbbbbbbbbbbbbbbbbbbbbbbbbbbbaaaaaaaaaaaaaaaaaaaaaaa----------..-
(PID.TID 0000.0001) //    237 -..---------aaaaaaaaaaaaaaaaaaaaabbbbbbbbbbbbbbbbbbbbbbbbcccccccccccccccccccccccccccccccccddddddddddddddddddddddddddddddddddddddddddddddddddddddddddddddddddddddddcccccccccccccccccccccccccccccccccbbbbbbbbbbbbbbbbbbbbbbbbaaaaaaaaaaaaaaaaaaaaa---------..-
(PID.TID 0000.0001) //    236 -..--------aaaaaaaaaaaaaaaaaaaabbbbbbbbbbbbbbbbbbbbbccccccccccccccccccccccccccddddddddddddddddddddddddddddddddddddddddddddddddddddddddddddddddddddddddddddddddddddddddddddddddccccccccccccccccccccccccccbbbbbbbbbbbbbbbbbbbbbaaaaaaaaaaaaaaaaaaaa--------..-
(PID.TID 0000.0001) //    235 -..--------aaaaaaaaaaaaaaaaabbbbbbbbbbbbbbbbbbbbcccccccccccccccccccccccddddddddddddddddddddddddddddddddddddddddeeeeeeeeeeeeeeeeeeeeeeeeeeeeeeddddddddddddddddddddddddddddddddddddddddcccccccccccccccccccccccbbbbbbbbbbbbbbbbbbbbaaaaaaaaaaaaaaaaa--------..-
(PID.TID 0000.0001) //    234 -..-------aaaaaaaaaaaaaaaaabbbbbbbbbbbbbbbbbccccccccccccccccccccdddddddddddddddddddddddddddddeeeeeeeeeeeeeeeeeeeeeeeeeeeeeeeeeeeeeeeeeeeeeeeeeeeeeeeeeeeeeeeeeedddddddddddddddddddddddddddddccccccccccccccccccccbbbbbbbbbbbbbbbbbaaaaaaaaaaaaaaaaa-------..-
(PID.TID 0000.0001) //    233 -..-------aaaaaaaaaaaaaaabbbbbbbbbbbbbbbbcccccccccccccccccccdddddddddddddddddddddddeeeeeeeeeeeeeeeeeeeeeeeeeeeeeeeeeeeeeeeeeeeeeeeeeeeeeeeeeeeeeeeeeeeeeeeeeeeeeeeeeeeeeedddddddddddddddddddddddcccccccccccccccccccbbbbbbbbbbbbbbbbaaaaaaaaaaaaaaa-------..-
(PID.TID 0000.0001) //    232 -..------aaaaaaaaaaaaaaabbbbbbbbbbbbbbbccccccccccccccccdddddddddddddddddddddeeeeeeeeeeeeeeeeeeeeeeeeeeeeeeeeeeeffffffffffffffffffffffffffffffeeeeeeeeeeeeeeeeeeeeeeeeeeeeeeeeeeedddddddddddddddddddddccccccccccccccccbbbbbbbbbbbbbbbaaaaaaaaaaaaaaa------..-
(PID.TID 0000.0001) //    231 -..------aaaaaaaaaaaaabbbbbbbbbbbbbbccccccccccccccccddddddddddddddddddeeeeeeeeeeeeeeeeeeeeeeeeeeffffffffffffffffffffffffffffffffffffffffffffffffffffffffffffeeeeeeeeeeeeeeeeeeeeeeeeeeddddddddddddddddddccccccccccccccccbbbbbbbbbbbbbbaaaaaaaaaaaaa------..-
(PID.TID 0000.0001) //    230 -..-----aaaaaaaaaaaaabbbbbbbbbbbbbcccccccccccccccddddddddddddddddeeeeeeeeeeeeeeeeeeeeeeffffffffffffffffffffffffffffffffffffffffffffffffffffffffffffffffffffffffffffffeeeeeeeeeeeeeeeeeeeeeeddddddddddddddddcccccccccccccccbbbbbbbbbbbbbaaaaaaaaaaaaa-----..-
(PID.TID 0000.0001) //    229 -..-----aaaaaaaaaaaabbbbbbbbbbbbbcccccccccccccdddddddddddddddeeeeeeeeeeeeeeeeeeefffffffffffffffffffffffffffffffffggggggggggggggggggggggggggfffffffffffffffffffffffffffffffffeeeeeeeeeeeeeeeeeeedddddddddddddddcccccccccccccbbbbbbbbbbbbbaaaaaaaaaaaa-----..-
(PID.TID 0000.0001) //    228 -..-----aaaaaaaaaaabbbbbbbbbbbbcccccccccccccddddddddddddddeeeeeeeeeeeeeeeeffffffffffffffffffffffffggggggggggggggggggggggggggggggggggggggggggggggggggggggggffffffffffffffffffffffffeeeeeeeeeeeeeeeeddddddddddddddcccccccccccccbbbbbbbbbbbbaaaaaaaaaaa-----..-
(PID.TID 0000.0001) //    227 -..-----aaaaaaaaaaabbbbbbbbbbbccccccccccccdddddddddddddeeeeeeeeeeeeeeeffffffffffffffffffffggggggggggggggggggggggggggggggggggggggggggggggggggggggggggggggggggggggggffffffffffffffffffffeeeeeeeeeeeeeeedddddddddddddccccccccccccbbbbbbbbbbbaaaaaaaaaaa-----..-
(PID.TID 0000.0001) //    226 -..----aaaaaaaaaaabbbbbbbbbbbcccccccccccddddddddddddeeeeeeeeeeeeeefffffffffffffffffggggggggggggggggggggggggggggggghhhhhhhhhhhhhhhhhhhhhhhhgggggggggggggggggggggggggggggggfffffffffffffffffeeeeeeeeeeeeeeddddddddddddcccccccccccbbbbbbbbbbbaaaaaaaaaaa----..-
(PID.TID 0000.0001) //    225 -..----aaaaaaaaaabbbbbbbbbbcccccccccccddddddddddddeeeeeeeeeeeeefffffffffffffffgggggggggggggggggggggghhhhhhhhhhhhhhhhhhhhhhhhhhhhhhhhhhhhhhhhhhhhhhhhhhhhggggggggggggggggggggggfffffffffffffffeeeeeeeeeeeeeddddddddddddcccccccccccbbbbbbbbbbaaaaaaaaaa----..-
(PID.TID 0000.0001) //    224 -..----aaaaaaaaaabbbbbbbbbcccccccccccdddddddddddeeeeeeeeeeeeffffffffffffffgggggggggggggggggghhhhhhhhhhhhhhhhhhhhhhhhhhhhhhhhhhhhhhhhhhhhhhhhhhhhhhhhhhhhhhhhhhhhggggggggggggggggggffffffffffffffeeeeeeeeeeeedddddddddddcccccccccccbbbbbbbbbaaaaaaaaaa----..-
(PID.TID 0000.0001) //    223 -..----aaaaaaaaabbbbbbbbbccccccccccdddddddddddeeeeeeeeeeefffffffffffffgggggggggggggggghhhhhhhhhhhhhhhhhhhhhhhhhhhhhhiiiiiiiiiiiiiiiiiiiihhhhhhhhhhhhhhhhhhhhhhhhhhhhhhggggggggggggggggfffffffffffffeeeeeeeeeeedddddddddddccccccccccbbbbbbbbbaaaaaaaaa----..-
(PID.TID 0000.0001) //    222 -..----aaaaaaaabbbbbbbbbbcccccccccddddddddddeeeeeeeeeeeffffffffffffgggggggggggggghhhhhhhhhhhhhhhhhhhhhhiiiiiiiiiiiiiiiiiiiiiiiiiiiiiiiiiiiiiiiiiiiiiihhhhhhhhhhhhhhhhhhhhhhggggggggggggggffffffffffffeeeeeeeeeeeddddddddddcccccccccbbbbbbbbbbaaaaaaaa----..-
(PID.TID 0000.0001) //    221 -..---aaaaaaaaabbbbbbbbbcccccccccdddddddddeeeeeeeeeeefffffffffffggggggggggggghhhhhhhhhhhhhhhhhhiiiiiiiiiiiiiiiiiiiiiiiiiiiiiiiiiiiiiiiiiiiiiiiiiiiiiiiiiiiiiihhhhhhhhhhhhhhhhhhgggggggggggggfffffffffffeeeeeeeeeeedddddddddcccccccccbbbbbbbbbaaaaaaaaa---..-
(PID.TID 0000.0001) //    220 -..---aaaaaaaaabbbbbbbbcccccccccdddddddddeeeeeeeeeeffffffffffggggggggggggghhhhhhhhhhhhhhhiiiiiiiiiiiiiiiiiiiiiiiiiiiiiiijjjjjjjjjjjjiiiiiiiiiiiiiiiiiiiiiiiiiiiiiiihhhhhhhhhhhhhhhgggggggggggggffffffffffeeeeeeeeeedddddddddcccccccccbbbbbbbbaaaaaaaaa---..-
(PID.TID 0000.0001) //    219 -..---aaaaaaaabbbbbbbbcccccccccddddddddeeeeeeeeeeffffffffffggggggggggghhhhhhhhhhhhhhiiiiiiiiiiiiiiiiiiiiijjjjjjjjjjjjjjjjjjjjjjjjjjjjjjjjjjjjjjjjjjiiiiiiiiiiiiiiiiiiiiihhhhhhhhhhhhhhgggggggggggffffffffffeeeeeeeeeeddddddddcccccccccbbbbbbbbaaaaaaaa---..-
(PID.TID 0000.0001) //    218 -..---aaaaaaaabbbbbbbbccccccccddddddddeeeeeeeeeffffffffffggggggggggghhhhhhhhhhhhiiiiiiiiiiiiiiiiijjjjjjjjjjjjjjjjjjjjjjjjjjjjjjjjjjjjjjjjjjjjjjjjjjjjjjjjjjiiiiiiiiiiiiiiiiihhhhhhhhhhhhgggggggggggffffffffffeeeeeeeeeddddddddccccccccbbbbbbbbaaaaaaaa---..-
(PID.TID 0000.0001) //    217 -..---aaaaaaabbbbbbbbccccccccddddddddeeeeeeeeefffffffffgggggggggghhhhhhhhhhhhiiiiiiiiiiiiiiijjjjjjjjjjjjjjjjjjjjjjjjjjjjjjjjjjjjjjjjjjjjjjjjjjjjjjjjjjjjjjjjjjjjiiiiiiiiiiiiiiihhhhhhhhhhhhggggggggggfffffffffeeeeeeeeeddddddddccccccccbbbbbbbbaaaaaaa---..-
(PID.TID 0000.0001) //    216 -..---aaaaaaabbbbbbbccccccccddddddddeeeeeeeefffffffffgggggggggghhhhhhhhhhhiiiiiiiiiiiiijjjjjjjjjjjjjjjjjjjjkkkkkkkkkkkkkkkkkkkkkkkkkkkkkkkkkkkkkkjjjjjjjjjjjjjjjjjjjjiiiiiiiiiiiiihhhhhhhhhhhggggggggggfffffffffeeeeeeeeddddddddccccccccbbbbbbbaaaaaaa---..-
(PID.TID 0000.0001) //    215 -..---aaaaaaabbbbbbbcccccccddddddddeeeeeeeeffffffffgggggggggghhhhhhhhhhiiiiiiiiiiiijjjjjjjjjjjjjjjjjkkkkkkkkkkkkkkkkkkkkkkkkkkkkkkkkkkkkkkkkkkkkkkkkkkkkjjjjjjjjjjjjjjjjjiiiiiiiiiiiihhhhhhhhhhggggggggggffffffffeeeeeeeeddddddddcccccccbbbbbbbaaaaaaa---..-
(PID.TID 0000.0001) //    214 -..---aaaaaabbbbbbbccccccccdddddddeeeeeeeeffffffffggggggggghhhhhhhhhiiiiiiiiiiiijjjjjjjjjjjjjjkkkkkkkkkkkkkkkkkkkkkkkkkkkkkkkkkkkkkkkkkkkkkkkkkkkkkkkkkkkkkkkkjjjjjjjjjjjjjjiiiiiiiiiiiihhhhhhhhhgggggggggffffffffeeeeeeeedddddddccccccccbbbbbbbaaaaaa---..-
(PID.TID 0000.0001) //    213 -..--aaaaaaabbbbbbbcccccccdddddddeeeeeeeefffffffggggggggghhhhhhhhhiiiiiiiiiiijjjjjjjjjjjjjkkkkkkkkkkkkkkkkkkkkllllllllllllllllllllllllllllllllkkkkkkkkkkkkkkkkkkkkjjjjjjjjjjjjjiiiiiiiiiiihhhhhhhhhgggggggggfffffffeeeeeeeedddddddcccccccbbbbbbbaaaaaaa--..-
(PID.TID 0000.0001) //    212 -..--aaaaaaabbbbbbbccccccdddddddeeeeeeeffffffffgggggggghhhhhhhhhiiiiiiiiiijjjjjjjjjjjjkkkkkkkkkkkkkkkkllllllllllllllllllllllllllllllllllllllllllllllllkkkkkkkkkkkkkkkkjjjjjjjjjjjjiiiiiiiiiihhhhhhhhhggggggggffffffffeeeeeeedddddddccccccbbbbbbbaaaaaaa--..-
(PID.TID 0000.0001) //    211 -..--aaaaaaabbbbbbcccccccddddddeeeeeeeffffffffgggggggghhhhhhhhiiiiiiiiijjjjjjjjjjjkkkkkkkkkkkkkkkllllllllllllllllllllllllllllllllllllllllllllllllllllllllllkkkkkkkkkkkkkkkjjjjjjjjjjjiiiiiiiiihhhhhhhhggggggggffffffffeeeeeeeddddddcccccccbbbbbbaaaaaaa--..-
(PID.TID 0000.0001) //    210 -..--aaaaaabbbbbbbccccccdddddddeeeeeeefffffffggggggghhhhhhhhiiiiiiiiijjjjjjjjjjkkkkkkkkkkkkkllllllllllllllllllllllmmmmmmmmmmmmmmmmmmmmmmmmllllllllllllllllllllllkkkkkkkkkkkkkjjjjjjjjjjiiiiiiiiihhhhhhhhgggggggfffffffeeeeeeedddddddccccccbbbbbbbaaaaaa--..-
(PID.TID 0000.0001) //    209 -..--aaaaaabbbbbbcccccccddddddeeeeeeefffffffggggggghhhhhhhhiiiiiiiijjjjjjjjjjkkkkkkkkkkklllllllllllllllllmmmmmmmmmmmmmmmmmmmmmmmmmmmmmmmmmmmmmmmmmmlllllllllllllllllkkkkkkkkkkkjjjjjjjjjjiiiiiiiihhhhhhhhgggggggfffffffeeeeeeeddddddcccccccbbbbbbaaaaaa--..-
(PID.TID 0000.0001) //    208 -..--aaaaaabbbbbbccccccddddddeeeeeeefffffffggggggghhhhhhhiiiiiiiijjjjjjjjjkkkkkkkkkkkllllllllllllllmmmmmmmmmmmmmmmmmmmmmmmmmmmmmmmmmmmmmmmmmmmmmmmmmmmmmmllllllllllllllkkkkkkkkkkkjjjjjjjjjiiiiiiiihhhhhhhgggggggfffffffeeeeeeeddddddccccccbbbbbbaaaaaa--..-
(PID.TID 0000.0001) //    207 -..--aaaaaabbbbbbccccccddddddeeeeeefffffffgggggghhhhhhhhiiiiiiijjjjjjjjjkkkkkkkkkklllllllllllllmmmmmmmmmmmmmmmmmmmmmmmmmnnnnnnnnnnnnmmmmmmmmmmmmmmmmmmmmmmmmmlllllllllllllkkkkkkkkkkjjjjjjjjjiiiiiiihhhhhhhhggggggfffffffeeeeeeddddddccccccbbbbbbaaaaaa--..-
(PID.TID 0000.0001) //    206 -..--aaaaaabbbbbccccccddddddeeeeeefffffffgggggghhhhhhhiiiiiiiijjjjjjjjkkkkkkkkkllllllllllllmmmmmmmmmmmmmmmmmnnnnnnnnnnnnnnnnnnnnnnnnnnnnnnnnnnnnmmmmmmmmmmmmmmmmmllllllllllllkkkkkkkkkjjjjjjjjiiiiiiiihhhhhhhggggggfffffffeeeeeeddddddccccccbbbbbaaaaaa--..-
(PID.TID 0000.0001) //    205 -..--aaaaabbbbbbccccccddddddeeeeeeffffffgggggghhhhhhhiiiiiiijjjjjjjjkkkkkkkkklllllllllllmmmmmmmmmmmmmmnnnnnnnnnnnnnnnnnnnnnnnnnnnnnnnnnnnnnnnnnnnnnnnnmmmmmmmmmmmmmmlllllllllllkkkkkkkkkjjjjjjjjiiiiiiihhhhhhhggggggffffffeeeeeeddddddccccccbbbbbbaaaaa--..-
(PID.TID 0000.0001) //    204 -..--aaaaabbbbbbcccccddddddeeeeeeffffffgggggghhhhhhhiiiiiiijjjjjjjkkkkkkkkkllllllllllmmmmmmmmmmmmmnnnnnnnnnnnnnnnnnnnnnnnnnnnnnnnnnnnnnnnnnnnnnnnnnnnnnnnnmmmmmmmmmmmmmllllllllllkkkkkkkkkjjjjjjjiiiiiiihhhhhhhggggggffffffeeeeeeddddddcccccbbbbbbaaaaa--..-
(PID.TID 0000.0001) //    203 -..--aaaaabbbbbbcccccddddddeeeeeffffffgggggghhhhhhhiiiiiijjjjjjjjkkkkkkkklllllllllmmmmmmmmmmmmnnnnnnnnnnnnnnnnnnnoooooooooooooooooooooooooonnnnnnnnnnnnnnnnnnnmmmmmmmmmmmmlllllllllkkkkkkkkjjjjjjjjiiiiiihhhhhhhggggggffffffeeeeeddddddcccccbbbbbbaaaaa--..-
(PID.TID 0000.0001) //    202 -..--aaaaabbbbbccccccdddddeeeeeefffffgggggghhhhhhhiiiiiijjjjjjjkkkkkkkklllllllllmmmmmmmmmmnnnnnnnnnnnnnnnnoooooooooooooooooooooooooooooooooooooooonnnnnnnnnnnnnnnnmmmmmmmmmmlllllllllkkkkkkkkjjjjjjjiiiiiihhhhhhhggggggfffffeeeeeedddddccccccbbbbbaaaaa--..-
(PID.TID 0000.0001) //    201 -..--aaaaabbbbbcccccddddddeeeeeffffffgggggghhhhhhiiiiiijjjjjjjkkkkkkklllllllllmmmmmmmmmmnnnnnnnnnnnnnoooooooooooooooooooooooooooooooooooooooooooooooooonnnnnnnnnnnnnmmmmmmmmmmlllllllllkkkkkkkjjjjjjjiiiiiihhhhhhggggggffffffeeeeeddddddcccccbbbbbaaaaa--..-
(PID.TID 0000.0001) //    200 -..--aaaaabbbbbcccccdddddeeeeeefffffgggggghhhhhhiiiiiijjjjjjkkkkkkkkllllllllmmmmmmmmmnnnnnnnnnnnnooooooooooooooooooooooppppppppppppppoooooooooooooooooooooonnnnnnnnnnnnmmmmmmmmmllllllllkkkkkkkkjjjjjjiiiiiihhhhhhggggggfffffeeeeeedddddcccccbbbbbaaaaa--..-
(PID.TID 0000.0001) //    199 -..--aaaaabbbbbcccccdddddeeeeefffffgggggghhhhhhiiiiiijjjjjjkkkkkkkllllllllmmmmmmmmmnnnnnnnnnnoooooooooooooooooppppppppppppppppppppppppppppppppooooooooooooooooonnnnnnnnnnmmmmmmmmmllllllllkkkkkkkjjjjjjiiiiiihhhhhhggggggfffffeeeeedddddcccccbbbbbaaaaa--..-
(PID.TID 0000.0001) //    198 -..-aaaaabbbbbcccccdddddeeeeeefffffggggghhhhhhiiiiiijjjjjjkkkkkkklllllllmmmmmmmmnnnnnnnnnnooooooooooooooppppppppppppppppppppppppppppppppppppppppppppoooooooooooooonnnnnnnnnnmmmmmmmmlllllllkkkkkkkjjjjjjiiiiiihhhhhhgggggfffffeeeeeedddddcccccbbbbbaaaaa-..-
(PID.TID 0000.0001) //    197 -..-aaaaabbbbbcccccdddddeeeeefffffgggggghhhhhiiiiiijjjjjjkkkkkkllllllllmmmmmmmnnnnnnnnnnooooooooooooppppppppppppppppppppppppppppppppppppppppppppppppppppoooooooooooonnnnnnnnnnmmmmmmmllllllllkkkkkkjjjjjjiiiiiihhhhhggggggfffffeeeeedddddcccccbbbbbaaaaa-..-
(PID.TID 0000.0001) //    196 -..-aaaaabbbbbcccccdddddeeeeefffffggggghhhhhiiiiiijjjjjjkkkkkklllllllmmmmmmmmnnnnnnnnooooooooooopppppppppppppppppppqqqqqqqqqqqqqqqqqqqqqqpppppppppppppppppppooooooooooonnnnnnnnmmmmmmmmlllllllkkkkkkjjjjjjiiiiiihhhhhgggggfffffeeeeedddddcccccbbbbbaaaaa-..-
(PID.TID 0000.0001) //    195 -..-aaaaabbbbbccccdddddeeeeefffffggggghhhhhhiiiiijjjjjjkkkkkklllllllmmmmmmmnnnnnnnnoooooooooopppppppppppppppqqqqqqqqqqqqqqqqqqqqqqqqqqqqqqqqqqqqpppppppppppppppoooooooooonnnnnnnnmmmmmmmlllllllkkkkkkjjjjjjiiiiihhhhhhgggggfffffeeeeedddddccccbbbbbaaaaa-..-
(PID.TID 0000.0001) //    194 -..-aaaaabbbbbccccdddddeeeeefffffggggghhhhhiiiiijjjjjjkkkkkkllllllmmmmmmmnnnnnnnnoooooooooopppppppppppppqqqqqqqqqqqqqqqqqqqqqqqqqqqqqqqqqqqqqqqqqqqqpppppppppppppoooooooooonnnnnnnnmmmmmmmllllllkkkkkkjjjjjjiiiiihhhhhgggggfffffeeeeedddddccccbbbbbaaaaa-..-
(PID.TID 0000.0001) //    193 -..-aaaaabbbbcccccdddddeeeefffffggggghhhhhiiiiijjjjjjkkkkkkllllllmmmmmmmnnnnnnnoooooooooppppppppppppqqqqqqqqqqqqqqqqqqqqqqqqqqqqqqqqqqqqqqqqqqqqqqqqqqqqppppppppppppooooooooonnnnnnnmmmmmmmllllllkkkkkkjjjjjjiiiiihhhhhgggggfffffeeeedddddcccccbbbbaaaaa-..-
(PID.TID 0000.0001) //    192 -..-aaaaabbbbcccccddddeeeeefffffggggghhhhhiiiiijjjjjkkkkkkllllllmmmmmmnnnnnnnnoooooooopppppppppppqqqqqqqqqqqqqqqqqrrrrrrrrrrrrrrrrrrrrrrrrqqqqqqqqqqqqqqqqqpppppppppppoooooooonnnnnnnnmmmmmmllllllkkkkkkjjjjjiiiiihhhhhgggggfffffeeeeeddddcccccbbbbaaaaa-..-
(PID.TID 0000.0001) //    191 -..-aaaaabbbbcccccddddeeeeeffffggggghhhhhiiiiijjjjjkkkkkkllllllmmmmmmnnnnnnnooooooooppppppppppqqqqqqqqqqqqqqrrrrrrrrrrrrrrrrrrrrrrrrrrrrrrrrrrrrqqqqqqqqqqqqqqppppppppppoooooooonnnnnnnmmmmmmllllllkkkkkkjjjjjiiiiihhhhhgggggffffeeeeeddddcccccbbbbaaaaa-..-
(PID.TID 0000.0001) //    190 -..-aaaaabbbbccccdddddeeeefffffggggghhhhiiiiijjjjjkkkkkkllllllmmmmmmnnnnnnnooooooopppppppppqqqqqqqqqqqqqrrrrrrrrrrrrrrrrrrrrrrrrrrrrrrrrrrrrrrrrrrrrqqqqqqqqqqqqqpppppppppooooooonnnnnnnmmmmmmllllllkkkkkkjjjjjiiiiihhhhgggggfffffeeeedddddccccbbbbaaaaa-..-
(PID.TID 0000.0001) //    189 -..-aaaabbbbbccccddddeeeeeffffggggghhhhhiiiiijjjjjkkkkkllllllmmmmmmnnnnnnooooooooppppppppqqqqqqqqqqqrrrrrrrrrrrrrrrrrrrrrrrrrrrrrrrrrrrrrrrrrrrrrrrrrrrrqqqqqqqqqqqppppppppoooooooonnnnnnmmmmmmllllllkkkkkjjjjjiiiiihhhhhgggggffffeeeeeddddccccbbbbbaaaa-..-
(PID.TID 0000.0001) //    188 -..-aaaabbbbbccccddddeeeeeffffggggghhhhiiiiijjjjjkkkkkllllllmmmmmmnnnnnnoooooooppppppppqqqqqqqqqqrrrrrrrrrrrrrrrrrssssssssssssssssssssssssrrrrrrrrrrrrrrrrrqqqqqqqqqqppppppppooooooonnnnnnmmmmmmllllllkkkkkjjjjjiiiiihhhhgggggffffeeeeeddddccccbbbbbaaaa-..-
(PID.TID 0000.0001) //    187 -..-aaaabbbbcccccddddeeeefffffgggghhhhhiiiijjjjjkkkkkllllllmmmmmmnnnnnnooooooopppppppqqqqqqqqqqrrrrrrrrrrrrrssssssssssssssssssssssssssssssssssssrrrrrrrrrrrrrqqqqqqqqqqpppppppooooooonnnnnnmmmmmmllllllkkkkkjjjjjiiiihhhhhggggfffffeeeeddddcccccbbbbaaaa-..-
(PID.TID 0000.0001) //    186 -..-aaaabbbbccccdddddeeeeffffggggghhhhiiiiijjjjjkkkkklllllmmmmmmnnnnnnooooooppppppppqqqqqqqqrrrrrrrrrrrrssssssssssssssssssssssssssssssssssssssssssssrrrrrrrrrrrrqqqqqqqqppppppppoooooonnnnnnmmmmmmlllllkkkkkjjjjjiiiiihhhhgggggffffeeeedddddccccbbbbaaaa-..-
(PID.TID 0000.0001) //    185 -..-aaaabbbbccccddddeeeeeffffgggghhhhhiiiijjjjjkkkkklllllmmmmmmnnnnnooooooopppppppqqqqqqqqrrrrrrrrrrrssssssssssssssssssssssssssssssssssssssssssssssssssrrrrrrrrrrrqqqqqqqqpppppppooooooonnnnnmmmmmmlllllkkkkkjjjjjiiiihhhhhggggffffeeeeeddddccccbbbbaaaa-..-
(PID.TID 0000.0001) //    184 -..-aaaabbbbccccddddeeeefffffgggghhhhiiiiijjjjkkkkklllllmmmmmmnnnnnoooooooppppppqqqqqqqqrrrrrrrrrrsssssssssssssssssttttttttttttttttttttttsssssssssssssssssrrrrrrrrrrqqqqqqqqppppppooooooonnnnnmmmmmmlllllkkkkkjjjjiiiiihhhhggggfffffeeeeddddccccbbbbaaaa-..-
(PID.TID 0000.0001) //    183 -..-aaaabbbbccccddddeeeeffffggggghhhhiiiijjjjjkkkkklllllmmmmmnnnnnoooooopppppppqqqqqqqqrrrrrrrrrssssssssssssssttttttttttttttttttttttttttttttttssssssssssssssrrrrrrrrrqqqqqqqqpppppppoooooonnnnnmmmmmlllllkkkkkjjjjjiiiihhhhgggggffffeeeeddddccccbbbbaaaa-..-
(PID.TID 0000.0001) //    182 -..-aaaabbbbccccddddeeeeffffgggghhhhiiiiijjjjkkkkklllllmmmmmnnnnnoooooopppppppqqqqqqqrrrrrrrrrssssssssssssttttttttttttttttttttttttttttttttttttttttssssssssssssrrrrrrrrrqqqqqqqpppppppoooooonnnnnmmmmmlllllkkkkkjjjjiiiiihhhhggggffffeeeeddddccccbbbbaaaa-..-
(PID.TID 0000.0001) //    181 -..-aaaabbbbccccddddeeeeffffgggghhhhiiiijjjjjkkkklllllmmmmmnnnnnnooooopppppppqqqqqqqrrrrrrrrsssssssssssttttttttttttttttttttttttttttttttttttttttttttttsssssssssssrrrrrrrrqqqqqqqpppppppooooonnnnnnmmmmmlllllkkkkjjjjjiiiihhhhggggffffeeeeddddccccbbbbaaaa-..-
(PID.TID 0000.0001) //    180 -..-aaaabbbbccccdddeeeeffffgggghhhhhiiiijjjjkkkkklllllmmmmnnnnnnoooooppppppqqqqqqqrrrrrrrrssssssssssttttttttttttttttttuuuuuuuuuuuuuuuuttttttttttttttttttssssssssssrrrrrrrrqqqqqqqppppppooooonnnnnnmmmmlllllkkkkkjjjjiiiihhhhhggggffffeeeedddccccbbbbaaaa-..-
(PID.TID 0000.0001) //    179 -..-aaaabbbbcccddddeeeeffffgggghhhhiiiijjjjjkkkklllllmmmmmnnnnnoooooppppppqqqqqqqrrrrrrrssssssssssttttttttttttttuuuuuuuuuuuuuuuuuuuuuuuuuuuuttttttttttttttssssssssssrrrrrrrqqqqqqqppppppooooonnnnnmmmmmlllllkkkkjjjjjiiiihhhhggggffffeeeeddddcccbbbbaaaa-..-
(PID.TID 0000.0001) //    178 -..-aaaabbbccccddddeeeeffffgggghhhhiiiijjjjkkkkkllllmmmmmnnnnnoooooppppppqqqqqqqrrrrrrrsssssssssttttttttttttuuuuuuuuuuuuuuuuuuuuuuuuuuuuuuuuuuuuttttttttttttsssssssssrrrrrrrqqqqqqqppppppooooonnnnnmmmmmllllkkkkkjjjjiiiihhhhggggffffeeeeddddccccbbbaaaa-..-
(PID.TID 0000.0001) //    177 -..-aaaabbbccccddddeeeeffffgggghhhhiiiijjjjkkkklllllmmmmnnnnnoooooopppppqqqqqqrrrrrrrssssssssstttttttttttuuuuuuuuuuuuuuuuuuuuuuuuuuuuuuuuuuuuuuuuuutttttttttttsssssssssrrrrrrrqqqqqqpppppoooooonnnnnmmmmlllllkkkkjjjjiiiihhhhggggffffeeeeddddccccbbbaaaa-..-
(PID.TID 0000.0001) //    176 -..-aaaabbbccccddddeeeffffgggghhhhiiiijjjjkkkkkllllmmmmmnnnnnooooopppppqqqqqqrrrrrrrssssssssttttttttttuuuuuuuuuuuuuuuuuuuuuuuuuuuuuuuuuuuuuuuuuuuuuuuuttttttttttssssssssrrrrrrrqqqqqqpppppooooonnnnnmmmmmllllkkkkkjjjjiiiihhhhggggffffeeeddddccccbbbaaaa-..-
(PID.TID 0000.0001) //    175 -..-aaaabbbccccddddeeeffffgggghhhhiiiijjjjkkkklllllmmmmnnnnnooooopppppqqqqqqrrrrrrrsssssssttttttttttuuuuuuuuuuuuuuuuvvvvvvvvvvvvvvvvvvvvuuuuuuuuuuuuuuuuttttttttttsssssssrrrrrrrqqqqqqpppppooooonnnnnmmmmlllllkkkkjjjjiiiihhhhggggffffeeeddddccccbbbaaaa-..-
(PID.TID 0000.0001) //    174 -..-aaabbbbccccdddeeeeffffgggghhhhiiiijjjjkkkkllllmmmmmnnnnoooooppppppqqqqqrrrrrrrssssssstttttttttuuuuuuuuuuuuuuvvvvvvvvvvvvvvvvvvvvvvvvvvvvuuuuuuuuuuuuuutttttttttsssssssrrrrrrrqqqqqppppppooooonnnnmmmmmllllkkkkjjjjiiiihhhhggggffffeeeedddccccbbbbaaa-..-
(PID.TID 0000.0001) //    173 -..-aaabbbbccccdddeeeeffffggghhhhiiiijjjjkkkklllllmmmmnnnnnooooopppppqqqqqrrrrrrrsssssssttttttttuuuuuuuuuuuuvvvvvvvvvvvvvvvvvvvvvvvvvvvvvvvvvvvvuuuuuuuuuuuuttttttttsssssssrrrrrrrqqqqqpppppooooonnnnnmmmmlllllkkkkjjjjiiiihhhhgggffffeeeedddccccbbbbaaa-..-
(PID.TID 0000.0001) //    172 -..-aaabbbbcccddddeeeefffgggghhhhiiiijjjjkkkkllllmmmmnnnnnooooopppppqqqqqrrrrrrsssssssttttttttuuuuuuuuuuuvvvvvvvvvvvvvvvvvvvvvvvvvvvvvvvvvvvvvvvvvvuuuuuuuuuuuttttttttsssssssrrrrrrqqqqqpppppooooonnnnnmmmmllllkkkkjjjjiiiihhhhggggfffeeeeddddcccbbbbaaa-..-
(PID.TID 0000.0001) //    171 -..-aaabbbbcccddddeeeefffgggghhhhiiiijjjkkkklllllmmmmnnnnooooopppppqqqqqqrrrrrsssssssttttttttuuuuuuuuuuvvvvvvvvvvvvvvvvvvvvvvvvvvvvvvvvvvvvvvvvvvvvvvuuuuuuuuuuttttttttsssssssrrrrrqqqqqqpppppooooonnnnmmmmlllllkkkkjjjiiiihhhhggggfffeeeeddddcccbbbbaaa-..-
(PID.TID 0000.0001) //    170 -..-aaabbbbcccddddeeeffffgggghhhiiiijjjjkkkkllllmmmmnnnnnoooooppppqqqqqqrrrrrrsssssstttttttuuuuuuuuuuvvvvvvvvvvvvvvvvwwwwwwwwwwwwwwwwwwvvvvvvvvvvvvvvvvuuuuuuuuuutttttttssssssrrrrrrqqqqqqppppooooonnnnnmmmmllllkkkkjjjjiiiihhhggggffffeeeddddcccbbbbaaa-..-
(PID.TID 0000.0001) //    169 -..-aaabbbbcccddddeeeffffggghhhhiiiijjjjkkkkllllmmmmnnnnooooopppppqqqqqrrrrrrsssssstttttttuuuuuuuuuvvvvvvvvvvvvvvwwwwwwwwwwwwwwwwwwwwwwwwwwvvvvvvvvvvvvvvuuuuuuuuutttttttssssssrrrrrrqqqqqpppppooooonnnnmmmmllllkkkkjjjjiiiihhhhgggffffeeeddddcccbbbbaaa-..-
(PID.TID 0000.0001) //    168 -..-aaabbbbcccddddeeeffffggghhhhiiiijjjkkkkllllmmmmmnnnnoooopppppqqqqqrrrrrrsssssstttttttuuuuuuuuvvvvvvvvvvvvwwwwwwwwwwwwwwwwwwwwwwwwwwwwwwwwwwvvvvvvvvvvvvuuuuuuuutttttttssssssrrrrrrqqqqqpppppoooonnnnmmmmmllllkkkkjjjiiiihhhhgggffffeeeddddcccbbbbaaa-..-
(PID.TID 0000.0001) //    167 -..-aaabbbbcccdddeeeefffgggghhhhiiijjjjkkkkllllmmmmnnnnooooopppppqqqqqrrrrrsssssstttttttuuuuuuuuvvvvvvvvvvvwwwwwwwwwwwwwwwwwwwwwwwwwwwwwwwwwwwwwwvvvvvvvvvvvuuuuuuuutttttttssssssrrrrrqqqqqpppppooooonnnnmmmmllllkkkkjjjjiiihhhhggggfffeeeedddcccbbbbaaa-..-
(PID.TID 0000.0001) //    166 -..-aaabbbccccdddeeeefffgggghhhiiiijjjjkkkkllllmmmmnnnnoooopppppqqqqqrrrrrsssssstttttttuuuuuuuvvvvvvvvvvvwwwwwwwwwwwwwwwwwwwwwwwwwwwwwwwwwwwwwwwwwwvvvvvvvvvvvuuuuuuutttttttssssssrrrrrqqqqqpppppoooonnnnmmmmllllkkkkjjjjiiiihhhggggfffeeeedddccccbbbaaa-..-
(PID.TID 0000.0001) //    165 -..-aaabbbccccdddeeeefffgggghhhiiiijjjjkkkllllmmmmnnnnoooooppppqqqqqrrrrrsssssstttttttuuuuuuuvvvvvvvvvvwwwwwwwwwwwwwwwwwwwxxxxxxxxwwwwwwwwwwwwwwwwwwwvvvvvvvvvvuuuuuuutttttttssssssrrrrrqqqqqppppooooonnnnmmmmllllkkkjjjjiiiihhhggggfffeeeedddccccbbbaaa-..-
(PID.TID 0000.0001) //    164 -..-aaabbbccccdddeeeefffggghhhhiiiijjjkkkkllllmmmmnnnnoooopppppqqqqqrrrrrssssstttttttuuuuuuuvvvvvvvvvwwwwwwwwwwwwwwwxxxxxxxxxxxxxxxxxxxxwwwwwwwwwwwwwwwvvvvvvvvvuuuuuuutttttttsssssrrrrrqqqqqpppppoooonnnnmmmmllllkkkkjjjiiiihhhhgggfffeeeedddccccbbbaaa-..-
(PID.TID 0000.0001) //    163 -..-aaabbbccccdddeeeffffggghhhhiiijjjjkkkkllllmmmmnnnnooooppppqqqqqrrrrrssssssttttttuuuuuuuvvvvvvvvwwwwwwwwwwwwwxxxxxxxxxxxxxxxxxxxxxxxxxxxxwwwwwwwwwwwwwvvvvvvvvuuuuuuuttttttssssssrrrrrqqqqqppppoooonnnnmmmmllllkkkkjjjjiiihhhhgggffffeeedddccccbbbaaa-..-
(PID.TID 0000.0001) //    162 -..-aaabbbccccdddeeeffffggghhhhiiijjjjkkkllllmmmmnnnnoooopppppqqqqrrrrrssssssttttttuuuuuuuvvvvvvvvwwwwwwwwwwwwxxxxxxxxxxxxxxxxxxxxxxxxxxxxxxxxwwwwwwwwwwwwvvvvvvvvuuuuuuuttttttssssssrrrrrqqqqpppppoooonnnnmmmmllllkkkjjjjiiihhhhgggffffeeedddccccbbbaaa-..-
(PID.TID 0000.0001) //    161 -..-aaabbbccccdddeeeffffggghhhiiiijjjjkkkllllmmmmnnnnooooppppqqqqqrrrrrsssssttttttuuuuuuuvvvvvvvvwwwwwwwwwwxxxxxxxxxxxxxxxxxxxxxxxxxxxxxxxxxxxxxxwwwwwwwwwwvvvvvvvvuuuuuuuttttttsssssrrrrrqqqqqppppoooonnnnmmmmllllkkkjjjjiiiihhhgggffffeeedddccccbbbaaa-..-
(PID.TID 0000.0001) //    160 -..-aaabbbcccddddeeefffgggghhhiiiijjjkkkkllllmmmnnnnoooooppppqqqqrrrrrsssssttttttuuuuuuuvvvvvvvwwwwwwwwwwwxxxxxxxxxxxxxxxxxxxxxxxxxxxxxxxxxxxxxxxxwwwwwwwwwwwvvvvvvvuuuuuuuttttttsssssrrrrrqqqqppppooooonnnnmmmllllkkkkjjjiiiihhhggggfffeeeddddcccbbbaaa-..-
(PID.TID 0000.0001) //    159 -..-aaabbbcccddddeeefffgggghhhiiiijjjkkkklllmmmmnnnnooooppppqqqqqrrrrrssssstttttuuuuuuuvvvvvvvwwwwwwwwwwxxxxxxxxxxxxxxxxxxxxxxxxxxxxxxxxxxxxxxxxxxxxwwwwwwwwwwvvvvvvvuuuuuuutttttsssssrrrrrqqqqqppppoooonnnnmmmmlllkkkkjjjiiiihhhggggfffeeeddddcccbbbaaa-..-
(PID.TID 0000.0001) //    158 -..-aaabbbcccddddeeefffggghhhhiiijjjjkkkllllmmmmnnnnooooppppqqqqrrrrrsssssttttttuuuuuuvvvvvvvwwwwwwwwwxxxxxxxxxxxxxxxxxyyyyyyyyyyyyyyxxxxxxxxxxxxxxxxxwwwwwwwwwvvvvvvvuuuuuuttttttsssssrrrrrqqqqppppoooonnnnmmmmllllkkkjjjjiiihhhhgggfffeeeddddcccbbbaaa-..-
(PID.TID 0000.0001) //    157 -..-aaabbbcccdddeeeefffggghhhhiiijjjjkkkllllmmmmnnnoooopppppqqqqrrrrrssssstttttuuuuuuvvvvvvvwwwwwwwwwxxxxxxxxxxxxxxyyyyyyyyyyyyyyyyyyyyyyxxxxxxxxxxxxxxwwwwwwwwwvvvvvvvuuuuuutttttsssssrrrrrqqqqpppppoooonnnmmmmllllkkkjjjjiiihhhhgggfffeeeedddcccbbbaaa-..-
(PID.TID 0000.0001) //    156 -..-aaabbbcccdddeeeefffggghhhhiiijjjkkkkllllmmmnnnnooooppppqqqqqrrrrssssstttttuuuuuuvvvvvvvwwwwwwwwwxxxxxxxxxxxxyyyyyyyyyyyyyyyyyyyyyyyyyyyyxxxxxxxxxxxxwwwwwwwwwvvvvvvvuuuuuutttttsssssrrrrqqqqqppppoooonnnnmmmllllkkkkjjjiiihhhhgggfffeeeedddcccbbbaaa-..-
(PID.TID 0000.0001) //    155 -..-aaabbbcccdddeeeefffggghhhiiiijjjkkkklllmmmmnnnnooooppppqqqqrrrrrssssstttttuuuuuuvvvvvvwwwwwwwwxxxxxxxxxxxxyyyyyyyyyyyyyyyyyyyyyyyyyyyyyyyyxxxxxxxxxxxxwwwwwwwwvvvvvvuuuuuutttttsssssrrrrrqqqqppppoooonnnnmmmmlllkkkkjjjiiiihhhgggfffeeeedddcccbbbaaa-..-
(PID.TID 0000.0001) //    154 -..-aaabbbcccdddeeeffffggghhhiiiijjjkkkklllmmmmnnnnooopppppqqqqrrrrssssstttttuuuuuuvvvvvvvwwwwwwwxxxxxxxxxxxyyyyyyyyyyyyyyyyyyyyyyyyyyyyyyyyyyyyxxxxxxxxxxxwwwwwwwvvvvvvvuuuuuutttttsssssrrrrqqqqpppppooonnnnmmmmlllkkkkjjjiiiihhhgggffffeeedddcccbbbaaa-..-
(PID.TID 0000.0001) //    153 -..-aaabbbcccdddeeeffffggghhhiiijjjjkkkllllmmmmnnnooooppppqqqqrrrrrssssstttttuuuuuvvvvvvvwwwwwwwxxxxxxxxxxxyyyyyyyyyyyyyyyyyyyyyyyyyyyyyyyyyyyyyyxxxxxxxxxxxwwwwwwwvvvvvvvuuuuutttttsssssrrrrrqqqqppppoooonnnmmmmllllkkkjjjjiiihhhgggffffeeedddcccbbbaaa-..-
(PID.TID 0000.0001) //    152 -..-aaabbbcccdddeeefffgggghhhiiijjjjkkkllllmmmnnnnooooppppqqqqrrrrssssstttttuuuuuuvvvvvvwwwwwwwxxxxxxxxxxyyyyyyyyyyyyyyyyyyyyyyyyyyyyyyyyyyyyyyyyyyxxxxxxxxxxwwwwwwwvvvvvvuuuuuutttttsssssrrrrqqqqppppoooonnnnmmmllllkkkjjjjiiihhhggggfffeeedddcccbbbaaa-..-
(PID.TID 0000.0001) //    151 -..-aaabbbcccdddeeefffgggghhhiiijjjjkkklllmmmmnnnnooooppppqqqqrrrrssssstttttuuuuuvvvvvvwwwwwwwwxxxxxxxxxyyyyyyyyyyyyyyyyyyyyyyyyyyyyyyyyyyyyyyyyyyyyxxxxxxxxxwwwwwwwwvvvvvvuuuuutttttsssssrrrrqqqqppppoooonnnnmmmmlllkkkjjjjiiihhhggggfffeeedddcccbbbaaa-..-
(PID.TID 0000.0001) //    150 -..-aaabbbcccdddeeefffggghhhhiiijjjkkkklllmmmmnnnnoooppppqqqqrrrrrsssstttttuuuuuuvvvvvvwwwwwwwxxxxxxxxxyyyyyyyyyyyyyyyyzzzzzzzzzzzzzzyyyyyyyyyyyyyyyyxxxxxxxxxwwwwwwwvvvvvvuuuuuutttttssssrrrrrqqqqppppooonnnnmmmmlllkkkkjjjiiihhhhgggfffeeedddcccbbbaaa-..-
(PID.TID 0000.0001) //    149 -..-aaabbbcccdddeeefffggghhhhiiijjjkkkklllmmmmnnnooooppppqqqqrrrrssssstttttuuuuuvvvvvvwwwwwwwxxxxxxxxxyyyyyyyyyyyyyyzzzzzzzzzzzzzzzzzzzzyyyyyyyyyyyyyyxxxxxxxxxwwwwwwwvvvvvvuuuuutttttsssssrrrrqqqqppppoooonnnmmmmlllkkkkjjjiiihhhhgggfffeeedddcccbbbaaa-..-
(PID.TID 0000.0001) //    148 -..-aaabbbcccdddeeefffggghhhhiiijjjkkkllllmmmnnnnooooppppqqqqrrrrsssssttttuuuuuuvvvvvvwwwwwwxxxxxxxxxyyyyyyyyyyyyyzzzzzzzzzzzzzzzzzzzzzzzzyyyyyyyyyyyyyxxxxxxxxxwwwwwwvvvvvvuuuuuuttttsssssrrrrqqqqppppoooonnnnmmmllllkkkjjjiiihhhhgggfffeeedddcccbbbaaa-..-
(PID.TID 0000.0001) //    147 -..-aaabbbcccdddeeefffggghhhiiiijjjkkkllllmmmnnnnooooppppqqqqrrrrsssstttttuuuuuvvvvvvwwwwwwwxxxxxxxxyyyyyyyyyyyyzzzzzzzzzzzzzzzzzzzzzzzzzzzzyyyyyyyyyyyyxxxxxxxxwwwwwwwvvvvvvuuuuutttttssssrrrrqqqqppppoooonnnnmmmllllkkkjjjiiiihhhgggfffeeedddcccbbbaaa-..-
(PID.TID 0000.0001) //    146 -..-aaabbbcccdddeeefffggghhhiiiijjjkkkllllmmmnnnnoooppppqqqqrrrrssssstttttuuuuuvvvvvvwwwwwwxxxxxxxxyyyyyyyyyyyzzzzzzzzzzzzzzzzzzzzzzzzzzzzzzzzyyyyyyyyyyyxxxxxxxxwwwwwwvvvvvvuuuuutttttsssssrrrrqqqqppppooonnnnmmmllllkkkjjjiiiihhhgggfffeeedddcccbbbaaa-..-
(PID.TID 0000.0001) //    145 -..-aaabbbcccdddeeefffggghhhiiijjjjkkklllmmmmnnnnoooppppqqqqrrrrsssssttttuuuuuvvvvvvwwwwwwwxxxxxxxyyyyyyyyyyyzzzzzzzzzzzzzzzzzzzzzzzzzzzzzzzzzzyyyyyyyyyyyxxxxxxxwwwwwwwvvvvvvuuuuuttttsssssrrrrqqqqppppooonnnnmmmmlllkkkjjjjiiihhhgggfffeeedddcccbbbaaa-..-
(PID.TID 0000.0001) //    144 -..-aaabbbcccdddeeefffggghhhiiijjjjkkklllmmmmnnnooooppppqqqqrrrrsssstttttuuuuuvvvvvvwwwwwwxxxxxxxxyyyyyyyyyyzzzzzzzzzzzzzzzzzzzzzzzzzzzzzzzzzzzzyyyyyyyyyyxxxxxxxxwwwwwwvvvvvvuuuuutttttssssrrrrqqqqppppoooonnnmmmmlllkkkjjjjiiihhhgggfffeeedddcccbbbaaa-..-
(PID.TID 0000.0001) //    143 -..-aaabbbcccdddeeefffggghhhiiijjjkkkklllmmmmnnnooooppppqqqqrrrrsssstttttuuuuuvvvvvwwwwwwxxxxxxxxyyyyyyyyyyzzzzzzzzzzzzzzzzzzzzzzzzzzzzzzzzzzzzzzyyyyyyyyyyxxxxxxxxwwwwwwvvvvvuuuuutttttssssrrrrqqqqppppoooonnnmmmmlllkkkkjjjiiihhhgggfffeeedddcccbbbaaa-..-
(PID.TID 0000.0001) //    142 -..-aaabbbcccdddeeefffggghhhiiijjjkkkklllmmmnnnnoooopppqqqqrrrrsssssttttuuuuuvvvvvvwwwwwwxxxxxxxyyyyyyyyyyzzzzzzzzzzzzzzzzzzzzzzzzzzzzzzzzzzzzzzzzyyyyyyyyyyxxxxxxxwwwwwwvvvvvvuuuuuttttsssssrrrrqqqqpppoooonnnnmmmlllkkkkjjjiiihhhgggfffeeedddcccbbbaaa-..-
(PID.TID 0000.0001) //    141 -..-aaabbbcccdddeeefffggghhhiiijjjkkkklllmmmnnnnoooopppqqqqrrrrsssssttttuuuuuvvvvvwwwwwwwxxxxxxxyyyyyyyyyzzzzzzzzzzzzzzzzzzzzzzzzzzzzzzzzzzzzzzzzzzyyyyyyyyyxxxxxxxwwwwwwwvvvvvuuuuuttttsssssrrrrqqqqpppoooonnnnmmmlllkkkkjjjiiihhhgggfffeeedddcccbbbaaa-..-
(PID.TID 0000.0001) //    140 -..-aaabbcccddddeeefffggghhhiiijjjkkkllllmmmnnnnoooppppqqqqrrrrsssstttttuuuuuvvvvvwwwwwwxxxxxxxyyyyyyyyyzzzzzzzzzzzzzzzzzzzzzzzzzzzzzzzzzzzzzzzzzzzzyyyyyyyyyxxxxxxxwwwwwwvvvvvuuuuutttttssssrrrrqqqqppppooonnnnmmmllllkkkjjjiiihhhgggfffeeeddddcccbbaaa-..-
(PID.TID 0000.0001) //    139 -..-aabbbcccdddeeeffffggghhhiiijjjkkkllllmmmnnnnoooppppqqqqrrrrsssstttttuuuuuvvvvvwwwwwwxxxxxxxyyyyyyyyyzzzzzzzzzzzzzzzzz++++++++++zzzzzzzzzzzzzzzzzyyyyyyyyyxxxxxxxwwwwwwvvvvvuuuuutttttssssrrrrqqqqppppooonnnnmmmllllkkkjjjiiihhhgggffffeeedddcccbbbaa-..-
(PID.TID 0000.0001) //    138 -..-aabbbcccdddeeeffffggghhhiiijjjkkkllllmmmnnnnoooppppqqqqrrrrssssttttuuuuuvvvvvvwwwwwxxxxxxxyyyyyyyyyzzzzzzzzzzzzzzzz++++++++++++++zzzzzzzzzzzzzzzzyyyyyyyyyxxxxxxxwwwwwvvvvvvuuuuuttttssssrrrrqqqqppppooonnnnmmmllllkkkjjjiiihhhgggffffeeedddcccbbbaa-..-
(PID.TID 0000.0001) //    137 -..-aabbbcccdddeeefffgggghhhiiijjjkkkllllmmmnnnooooppppqqqqrrrrssssttttuuuuuvvvvvwwwwwwxxxxxxxyyyyyyyyyzzzzzzzzzzzzzz++++++++++++++++++zzzzzzzzzzzzzzyyyyyyyyyxxxxxxxwwwwwwvvvvvuuuuuttttssssrrrrqqqqppppoooonnnmmmllllkkkjjjiiihhhggggfffeeedddcccbbbaa-..-
(PID.TID 0000.0001) //    136 -..-aabbbcccdddeeefffggghhhhiiijjjkkklllmmmmnnnooooppppqqqrrrrsssssttttuuuuuvvvvvwwwwwwxxxxxxxyyyyyyyyzzzzzzzzzzzzzz++++++++++++++++++++zzzzzzzzzzzzzzyyyyyyyyxxxxxxxwwwwwwvvvvvuuuuuttttsssssrrrrqqqppppoooonnnmmmmlllkkkjjjiiihhhhgggfffeeedddcccbbbaa-..-
(PID.TID 0000.0001) //    135 -..-aabbbcccdddeeefffggghhhhiiijjjkkklllmmmmnnnoooopppqqqqrrrrsssstttttuuuuuvvvvvwwwwwwxxxxxxyyyyyyyyyzzzzzzzzzzzzz++++++++++++++++++++++zzzzzzzzzzzzzyyyyyyyyyxxxxxxwwwwwwvvvvvuuuuutttttssssrrrrqqqqpppoooonnnmmmmlllkkkjjjiiihhhhgggfffeeedddcccbbbaa-..-
(PID.TID 0000.0001) //    134 -..-aabbbcccdddeeefffggghhhiiiijjjkkklllmmmmnnnoooopppqqqqrrrrsssstttttuuuuvvvvvvwwwwwxxxxxxxyyyyyyyyzzzzzzzzzzzzz++++++++++++++++++++++++zzzzzzzzzzzzzyyyyyyyyxxxxxxxwwwwwvvvvvvuuuutttttssssrrrrqqqqpppoooonnnmmmmlllkkkjjjiiiihhhgggfffeeedddcccbbbaa-..-
(PID.TID 0000.0001) //    133 a..aaabbbcccdddeeefffggghhhiiiijjjkkklllmmmmnnnoooopppqqqqrrrrsssstttttuuuuvvvvvwwwwwwxxxxxxxyyyyyyyyzzzzzzzzzzzz++++++++++++++++++++++++++zzzzzzzzzzzzyyyyyyyyxxxxxxxwwwwwwvvvvvuuuutttttssssrrrrqqqqpppoooonnnmmmmlllkkkjjjiiiihhhgggfffeeedddcccbbbaaa..a
(PID.TID 0000.0001) //    132 a..aaabbbcccdddeeefffggghhhiiiijjjkkklllmmmmnnnoooopppqqqqrrrrssssttttuuuuuvvvvvwwwwwwxxxxxxxyyyyyyyyzzzzzzzzzzzz++++++++++++++++++++++++++zzzzzzzzzzzzyyyyyyyyxxxxxxxwwwwwwvvvvvuuuuuttttssssrrrrqqqqpppoooonnnmmmmlllkkkjjjiiiihhhgggfffeeedddcccbbbaaa..a
(PID.TID 0000.0001) //    131 a..aaabbbcccdddeeefffggghhhiiiijjjkkklllmmmmnnnoooppppqqqqrrrrssssttttuuuuuvvvvvwwwwwwxxxxxxyyyyyyyyzzzzzzzzzzzz++++++++++++++++++++++++++++zzzzzzzzzzzzyyyyyyyyxxxxxxwwwwwwvvvvvuuuuuttttssssrrrrqqqqppppooonnnmmmmlllkkkjjjiiiihhhgggfffeeedddcccbbbaaa..a
(PID.TID 0000.0001) //    130 a..aaabbbcccdddeeefffggghhhiiijjjjkkklllmmmnnnnoooppppqqqqrrrrssssttttuuuuuvvvvvwwwwwwxxxxxxyyyyyyyyzzzzzzzzzzzz++++++++++++++++++++++++++++zzzzzzzzzzzzyyyyyyyyxxxxxxwwwwwwvvvvvuuuuuttttssssrrrrqqqqppppooonnnnmmmlllkkkjjjjiiihhhgggfffeeedddcccbbbaaa..a
(PID.TID 0000.0001) //    129 a..aaabbbcccdddeeefffggghhhiiijjjjkkklllmmmnnnnoooppppqqqqrrrrssssttttuuuuuvvvvvwwwwwwxxxxxxyyyyyyyyzzzzzzzzzzz++++++++++++++++++++++++++++++zzzzzzzzzzzyyyyyyyyxxxxxxwwwwwwvvvvvuuuuuttttssssrrrrqqqqppppooonnnnmmmlllkkkjjjjiiihhhgggfffeeedddcccbbbaaa..a
(PID.TID 0000.0001) //    128 a..aaabbbcccdddeeefffggghhhiiijjjjkkklllmmmnnnnoooppppqqqqrrrrssssttttuuuuuvvvvvwwwwwxxxxxxxyyyyyyyyzzzzzzzzzzz++++++++++++++++++++++++++++++zzzzzzzzzzzyyyyyyyyxxxxxxxwwwwwvvvvvuuuuuttttssssrrrrqqqqppppooonnnnmmmlllkkkjjjjiiihhhgggfffeeedddcccbbbaaa..a
(PID.TID 0000.0001) //    127 a..aaabbbcccdddeeefffggghhhiiijjjjkkklllmmmnnnnoooppppqqqqrrrrssssttttuuuuuvvvvvwwwwwxxxxxxxyyyyyyyyzzzzzzzzzzz++++++++++++++++++++++++++++++zzzzzzzzzzzyyyyyyyyxxxxxxxwwwwwvvvvvuuuuuttttssssrrrrqqqqppppooonnnnmmmlllkkkjjjjiiihhhgggfffeeedddcccbbbaaa..a
(PID.TID 0000.0001) //    126 a..aaabbbcccdddeeefffggghhhiiijjjjkkklllmmmnnnnoooppppqqqqrrrrssssttttuuuuuvvvvvwwwwwxxxxxxxyyyyyyyyzzzzzzzzzzz++++++++++++++++++++++++++++++zzzzzzzzzzzyyyyyyyyxxxxxxxwwwwwvvvvvuuuuuttttssssrrrrqqqqppppooonnnnmmmlllkkkjjjjiiihhhgggfffeeedddcccbbbaaa..a
(PID.TID 0000.0001) //    125 a..aaabbbcccdddeeefffggghhhiiijjjjkkklllmmmnnnnoooppppqqqqrrrrssssttttuuuuuvvvvvwwwwwxxxxxxxyyyyyyyyzzzzzzzzzzz++++++++++++++++++++++++++++++zzzzzzzzzzzyyyyyyyyxxxxxxxwwwwwvvvvvuuuuuttttssssrrrrqqqqppppooonnnnmmmlllkkkjjjjiiihhhgggfffeeedddcccbbbaaa..a
(PID.TID 0000.0001) //    124 a..aaabbbcccdddeeefffggghhhiiijjjjkkklllmmmnnnnoooppppqqqqrrrrssssttttuuuuuvvvvvwwwwwxxxxxxxyyyyyyyyzzzzzzzzzzz++++++++++++++++++++++++++++++zzzzzzzzzzzyyyyyyyyxxxxxxxwwwwwvvvvvuuuuuttttssssrrrrqqqqppppooonnnnmmmlllkkkjjjjiiihhhgggfffeeedddcccbbbaaa..a
(PID.TID 0000.0001) //    123 a..aaabbbcccdddeeefffggghhhiiijjjjkkklllmmmnnnnoooppppqqqqrrrrssssttttuuuuuvvvvvwwwwwxxxxxxxyyyyyyyyzzzzzzzzzzz++++++++++++++++++++++++++++++zzzzzzzzzzzyyyyyyyyxxxxxxxwwwwwvvvvvuuuuuttttssssrrrrqqqqppppooonnnnmmmlllkkkjjjjiiihhhgggfffeeedddcccbbbaaa..a
(PID.TID 0000.0001) //    122 a..aaabbbcccdddeeefffggghhhiiijjjjkkklllmmmnnnnoooppppqqqqrrrrssssttttuuuuuvvvvvwwwwwxxxxxxxyyyyyyyyzzzzzzzzzzz++++++++++++++++++++++++++++++zzzzzzzzzzzyyyyyyyyxxxxxxxwwwwwvvvvvuuuuuttttssssrrrrqqqqppppooonnnnmmmlllkkkjjjjiiihhhgggfffeeedddcccbbbaaa..a
(PID.TID 0000.0001) //    121 a..aaabbbcccdddeeefffggghhhiiijjjjkkklllmmmnnnnoooppppqqqqrrrrssssttttuuuuuvvvvvwwwwwxxxxxxxyyyyyyyyzzzzzzzzzzz++++++++++++++++++++++++++++++zzzzzzzzzzzyyyyyyyyxxxxxxxwwwwwvvvvvuuuuuttttssssrrrrqqqqppppooonnnnmmmlllkkkjjjjiiihhhgggfffeeedddcccbbbaaa..a
(PID.TID 0000.0001) //    120 a..aaabbbcccdddeeefffggghhhiiijjjjkkklllmmmnnnnoooppppqqqqrrrrssssttttuuuuuvvvvvwwwwwwxxxxxxyyyyyyyyzzzzzzzzzzz++++++++++++++++++++++++++++++zzzzzzzzzzzyyyyyyyyxxxxxxwwwwwwvvvvvuuuuuttttssssrrrrqqqqppppooonnnnmmmlllkkkjjjjiiihhhgggfffeeedddcccbbbaaa..a
(PID.TID 0000.0001) //    119 a..aaabbbcccdddeeefffggghhhiiijjjjkkklllmmmnnnnoooppppqqqqrrrrssssttttuuuuuvvvvvwwwwwwxxxxxxyyyyyyyyzzzzzzzzzzzz++++++++++++++++++++++++++++zzzzzzzzzzzzyyyyyyyyxxxxxxwwwwwwvvvvvuuuuuttttssssrrrrqqqqppppooonnnnmmmlllkkkjjjjiiihhhgggfffeeedddcccbbbaaa..a
(PID.TID 0000.0001) //    118 a..aaabbbcccdddeeefffggghhhiiiijjjkkklllmmmmnnnoooppppqqqqrrrrssssttttuuuuuvvvvvwwwwwwxxxxxxyyyyyyyyzzzzzzzzzzzz++++++++++++++++++++++++++++zzzzzzzzzzzzyyyyyyyyxxxxxxwwwwwwvvvvvuuuuuttttssssrrrrqqqqppppooonnnmmmmlllkkkjjjiiiihhhgggfffeeedddcccbbbaaa..a
(PID.TID 0000.0001) //    117 a..aaabbbcccdddeeefffggghhhiiiijjjkkklllmmmmnnnoooopppqqqqrrrrssssttttuuuuuvvvvvwwwwwwxxxxxxxyyyyyyyyzzzzzzzzzzzz++++++++++++++++++++++++++zzzzzzzzzzzzyyyyyyyyxxxxxxxwwwwwwvvvvvuuuuuttttssssrrrrqqqqpppoooonnnmmmmlllkkkjjjiiiihhhgggfffeeedddcccbbbaaa..a
(PID.TID 0000.0001) //    116 a..aaabbbcccdddeeefffggghhhiiiijjjkkklllmmmmnnnoooopppqqqqrrrrsssstttttuuuuvvvvvwwwwwwxxxxxxxyyyyyyyyzzzzzzzzzzzz++++++++++++++++++++++++++zzzzzzzzzzzzyyyyyyyyxxxxxxxwwwwwwvvvvvuuuutttttssssrrrrqqqqpppoooonnnmmmmlllkkkjjjiiiihhhgggfffeeedddcccbbbaaa..a
(PID.TID 0000.0001) //    115 -..-aabbbcccdddeeefffggghhhiiiijjjkkklllmmmmnnnoooopppqqqqrrrrsssstttttuuuuvvvvvvwwwwwxxxxxxxyyyyyyyyzzzzzzzzzzzzz++++++++++++++++++++++++zzzzzzzzzzzzzyyyyyyyyxxxxxxxwwwwwvvvvvvuuuutttttssssrrrrqqqqpppoooonnnmmmmlllkkkjjjiiiihhhgggfffeeedddcccbbbaa-..-
(PID.TID 0000.0001) //    114 -..-aabbbcccdddeeefffggghhhhiiijjjkkklllmmmmnnnoooopppqqqqrrrrsssstttttuuuuuvvvvvwwwwwwxxxxxxyyyyyyyyyzzzzzzzzzzzzz++++++++++++++++++++++zzzzzzzzzzzzzyyyyyyyyyxxxxxxwwwwwwvvvvvuuuuutttttssssrrrrqqqqpppoooonnnmmmmlllkkkjjjiiihhhhgggfffeeedddcccbbbaa-..-
(PID.TID 0000.0001) //    113 -..-aabbbcccdddeeefffggghhhhiiijjjkkklllmmmmnnnooooppppqqqrrrrsssssttttuuuuuvvvvvwwwwwwxxxxxxxyyyyyyyyzzzzzzzzzzzzzz++++++++++++++++++++zzzzzzzzzzzzzzyyyyyyyyxxxxxxxwwwwwwvvvvvuuuuuttttsssssrrrrqqqppppoooonnnmmmmlllkkkjjjiiihhhhgggfffeeedddcccbbbaa-..-
(PID.TID 0000.0001) //    112 -..-aabbbcccdddeeefffgggghhhiiijjjkkkllllmmmnnnooooppppqqqqrrrrssssttttuuuuuvvvvvwwwwwwxxxxxxxyyyyyyyyyzzzzzzzzzzzzzz++++++++++++++++++zzzzzzzzzzzzzzyyyyyyyyyxxxxxxxwwwwwwvvvvvuuuuuttttssssrrrrqqqqppppoooonnnmmmllllkkkjjjiiihhhggggfffeeedddcccbbbaa-..-
(PID.TID 0000.0001) //    111 -..-aabbbcccdddeeeffffggghhhiiijjjkkkllllmmmnnnnoooppppqqqqrrrrssssttttuuuuuvvvvvvwwwwwxxxxxxxyyyyyyyyyzzzzzzzzzzzzzzzz++++++++++++++zzzzzzzzzzzzzzzzyyyyyyyyyxxxxxxxwwwwwvvvvvvuuuuuttttssssrrrrqqqqppppooonnnnmmmllllkkkjjjiiihhhgggffffeeedddcccbbbaa-..-
(PID.TID 0000.0001) //    110 -..-aabbbcccdddeeeffffggghhhiiijjjkkkllllmmmnnnnoooppppqqqqrrrrsssstttttuuuuuvvvvvwwwwwwxxxxxxxyyyyyyyyyzzzzzzzzzzzzzzzzz++++++++++zzzzzzzzzzzzzzzzzyyyyyyyyyxxxxxxxwwwwwwvvvvvuuuuutttttssssrrrrqqqqppppooonnnnmmmllllkkkjjjiiihhhgggffffeeedddcccbbbaa-..-
(PID.TID 0000.0001) //    109 -..-aaabbcccddddeeefffggghhhiiijjjkkkllllmmmnnnnoooppppqqqqrrrrsssstttttuuuuuvvvvvwwwwwwxxxxxxxyyyyyyyyyzzzzzzzzzzzzzzzzzzzzzzzzzzzzzzzzzzzzzzzzzzzzyyyyyyyyyxxxxxxxwwwwwwvvvvvuuuuutttttssssrrrrqqqqppppooonnnnmmmllllkkkjjjiiihhhgggfffeeeddddcccbbaaa-..-
(PID.TID 0000.0001) //    108 -..-aaabbbcccdddeeefffggghhhiiijjjkkkklllmmmnnnnoooopppqqqqrrrrsssssttttuuuuuvvvvvwwwwwwwxxxxxxxyyyyyyyyyzzzzzzzzzzzzzzzzzzzzzzzzzzzzzzzzzzzzzzzzzzyyyyyyyyyxxxxxxxwwwwwwwvvvvvuuuuuttttsssssrrrrqqqqpppoooonnnnmmmlllkkkkjjjiiihhhgggfffeeedddcccbbbaaa-..-
(PID.TID 0000.0001) //    107 -..-aaabbbcccdddeeefffggghhhiiijjjkkkklllmmmnnnnoooopppqqqqrrrrsssssttttuuuuuvvvvvvwwwwwwxxxxxxxyyyyyyyyyyzzzzzzzzzzzzzzzzzzzzzzzzzzzzzzzzzzzzzzzzyyyyyyyyyyxxxxxxxwwwwwwvvvvvvuuuuuttttsssssrrrrqqqqpppoooonnnnmmmlllkkkkjjjiiihhhgggfffeeedddcccbbbaaa-..-
(PID.TID 0000.0001) //    106 -..-aaabbbcccdddeeefffggghhhiiijjjkkkklllmmmmnnnooooppppqqqqrrrrsssstttttuuuuuvvvvvwwwwwwxxxxxxxxyyyyyyyyyyzzzzzzzzzzzzzzzzzzzzzzzzzzzzzzzzzzzzzzyyyyyyyyyyxxxxxxxxwwwwwwvvvvvuuuuutttttssssrrrrqqqqppppoooonnnmmmmlllkkkkjjjiiihhhgggfffeeedddcccbbbaaa-..-
(PID.TID 0000.0001) //    105 -..-aaabbbcccdddeeefffggghhhiiijjjjkkklllmmmmnnnooooppppqqqqrrrrsssstttttuuuuuvvvvvvwwwwwwxxxxxxxxyyyyyyyyyyzzzzzzzzzzzzzzzzzzzzzzzzzzzzzzzzzzzzyyyyyyyyyyxxxxxxxxwwwwwwvvvvvvuuuuutttttssssrrrrqqqqppppoooonnnmmmmlllkkkjjjjiiihhhgggfffeeedddcccbbbaaa-..-
(PID.TID 0000.0001) //    104 -..-aaabbbcccdddeeefffggghhhiiijjjjkkklllmmmmnnnnoooppppqqqqrrrrsssssttttuuuuuvvvvvvwwwwwwwxxxxxxxyyyyyyyyyyyzzzzzzzzzzzzzzzzzzzzzzzzzzzzzzzzzzyyyyyyyyyyyxxxxxxxwwwwwwwvvvvvvuuuuuttttsssssrrrrqqqqppppooonnnnmmmmlllkkkjjjjiiihhhgggfffeeedddcccbbbaaa-..-
(PID.TID 0000.0001) //    103 -..-aaabbbcccdddeeefffggghhhiiiijjjkkkllllmmmnnnnoooppppqqqqrrrrssssstttttuuuuuvvvvvvwwwwwwxxxxxxxxyyyyyyyyyyyzzzzzzzzzzzzzzzzzzzzzzzzzzzzzzzzyyyyyyyyyyyxxxxxxxxwwwwwwvvvvvvuuuuutttttsssssrrrrqqqqppppooonnnnmmmllllkkkjjjiiiihhhgggfffeeedddcccbbbaaa-..-
(PID.TID 0000.0001) //    102 -..-aaabbbcccdddeeefffggghhhiiiijjjkkkllllmmmnnnnooooppppqqqqrrrrsssstttttuuuuuvvvvvvwwwwwwwxxxxxxxxyyyyyyyyyyyyzzzzzzzzzzzzzzzzzzzzzzzzzzzzyyyyyyyyyyyyxxxxxxxxwwwwwwwvvvvvvuuuuutttttssssrrrrqqqqppppoooonnnnmmmllllkkkjjjiiiihhhgggfffeeedddcccbbbaaa-..-
(PID.TID 0000.0001) //    101 -..-aaabbbcccdddeeefffggghhhhiiijjjkkkllllmmmnnnnooooppppqqqqrrrrsssssttttuuuuuuvvvvvvwwwwwwxxxxxxxxxyyyyyyyyyyyyyzzzzzzzzzzzzzzzzzzzzzzzzyyyyyyyyyyyyyxxxxxxxxxwwwwwwvvvvvvuuuuuuttttsssssrrrrqqqqppppoooonnnnmmmllllkkkjjjiiihhhhgggfffeeedddcccbbbaaa-..-
(PID.TID 0000.0001) //    100 -..-aaabbbcccdddeeefffggghhhhiiijjjkkkklllmmmmnnnooooppppqqqqrrrrssssstttttuuuuuvvvvvvwwwwwwwxxxxxxxxxyyyyyyyyyyyyyyzzzzzzzzzzzzzzzzzzzzyyyyyyyyyyyyyyxxxxxxxxxwwwwwwwvvvvvvuuuuutttttsssssrrrrqqqqppppoooonnnmmmmlllkkkkjjjiiihhhhgggfffeeedddcccbbbaaa-..-
(PID.TID 0000.0001) //     99 -..-aaabbbcccdddeeefffggghhhhiiijjjkkkklllmmmmnnnnoooppppqqqqrrrrrsssstttttuuuuuuvvvvvvwwwwwwwxxxxxxxxxyyyyyyyyyyyyyyyyzzzzzzzzzzzzzzyyyyyyyyyyyyyyyyxxxxxxxxxwwwwwwwvvvvvvuuuuuutttttssssrrrrrqqqqppppooonnnnmmmmlllkkkkjjjiiihhhhgggfffeeedddcccbbbaaa-..-
(PID.TID 0000.0001) //     98 -..-aaabbbcccdddeeefffgggghhhiiijjjjkkklllmmmmnnnnooooppppqqqqrrrrssssstttttuuuuuvvvvvvwwwwwwwwxxxxxxxxxyyyyyyyyyyyyyyyyyyyyyyyyyyyyyyyyyyyyyyyyyyyyxxxxxxxxxwwwwwwwwvvvvvvuuuuutttttsssssrrrrqqqqppppoooonnnnmmmmlllkkkjjjjiiihhhggggfffeeedddcccbbbaaa-..-
(PID.TID 0000.0001) //     97 -..-aaabbbcccdddeeefffgggghhhiiijjjjkkkllllmmmnnnnooooppppqqqqrrrrssssstttttuuuuuuvvvvvvwwwwwwwxxxxxxxxxxyyyyyyyyyyyyyyyyyyyyyyyyyyyyyyyyyyyyyyyyyyxxxxxxxxxxwwwwwwwvvvvvvuuuuuutttttsssssrrrrqqqqppppoooonnnnmmmllllkkkjjjjiiihhhggggfffeeedddcccbbbaaa-..-
(PID.TID 0000.0001) //     96 -..-aaabbbcccdddeeeffffggghhhiiijjjjkkkllllmmmmnnnooooppppqqqqrrrrrssssstttttuuuuuvvvvvvvwwwwwwwxxxxxxxxxxxyyyyyyyyyyyyyyyyyyyyyyyyyyyyyyyyyyyyyyxxxxxxxxxxxwwwwwwwvvvvvvvuuuuutttttsssssrrrrrqqqqppppoooonnnmmmmllllkkkjjjjiiihhhgggffffeeedddcccbbbaaa-..-
(PID.TID 0000.0001) //     95 -..-aaabbbcccdddeeeffffggghhhiiiijjjkkkklllmmmmnnnnooopppppqqqqrrrrssssstttttuuuuuuvvvvvvvwwwwwwwxxxxxxxxxxxyyyyyyyyyyyyyyyyyyyyyyyyyyyyyyyyyyyyxxxxxxxxxxxwwwwwwwvvvvvvvuuuuuutttttsssssrrrrqqqqpppppooonnnnmmmmlllkkkkjjjiiiihhhgggffffeeedddcccbbbaaa-..-
(PID.TID 0000.0001) //     94 -..-aaabbbcccdddeeeefffggghhhiiiijjjkkkklllmmmmnnnnooooppppqqqqrrrrrssssstttttuuuuuuvvvvvvwwwwwwwwxxxxxxxxxxxxyyyyyyyyyyyyyyyyyyyyyyyyyyyyyyyyxxxxxxxxxxxxwwwwwwwwvvvvvvuuuuuutttttsssssrrrrrqqqqppppoooonnnnmmmmlllkkkkjjjiiiihhhgggfffeeeedddcccbbbaaa-..-
(PID.TID 0000.0001) //     93 -..-aaabbbcccdddeeeefffggghhhhiiijjjkkkkllllmmmnnnnooooppppqqqqqrrrrssssstttttuuuuuuvvvvvvvwwwwwwwwwxxxxxxxxxxxxyyyyyyyyyyyyyyyyyyyyyyyyyyyyxxxxxxxxxxxxwwwwwwwwwvvvvvvvuuuuuutttttsssssrrrrqqqqqppppoooonnnnmmmllllkkkkjjjiiihhhhgggfffeeeedddcccbbbaaa-..-
(PID.TID 0000.0001) //     92 -..-aaabbbcccdddeeeefffggghhhhiiijjjjkkkllllmmmmnnnoooopppppqqqqrrrrrssssstttttuuuuuuvvvvvvvwwwwwwwwwxxxxxxxxxxxxxxyyyyyyyyyyyyyyyyyyyyyyxxxxxxxxxxxxxxwwwwwwwwwvvvvvvvuuuuuutttttsssssrrrrrqqqqpppppoooonnnmmmmllllkkkjjjjiiihhhhgggfffeeeedddcccbbbaaa-..-
(PID.TID 0000.0001) //     91 -..-aaabbbcccddddeeefffggghhhhiiijjjjkkkllllmmmmnnnnooooppppqqqqrrrrrsssssttttttuuuuuuvvvvvvvwwwwwwwwwxxxxxxxxxxxxxxxxxyyyyyyyyyyyyyyxxxxxxxxxxxxxxxxxwwwwwwwwwvvvvvvvuuuuuuttttttsssssrrrrrqqqqppppoooonnnnmmmmllllkkkjjjjiiihhhhgggfffeeeddddcccbbbaaa-..-
(PID.TID 0000.0001) //     90 -..-aaabbbcccddddeeefffgggghhhiiiijjjkkkklllmmmmnnnnooooppppqqqqqrrrrrssssstttttuuuuuuuvvvvvvvwwwwwwwwwwxxxxxxxxxxxxxxxxxxxxxxxxxxxxxxxxxxxxxxxxxxxxwwwwwwwwwwvvvvvvvuuuuuuutttttsssssrrrrrqqqqqppppoooonnnnmmmmlllkkkkjjjiiiihhhggggfffeeeddddcccbbbaaa-..-
(PID.TID 0000.0001) //     89 -..-aaabbbcccddddeeefffgggghhhiiiijjjkkkkllllmmmnnnnoooooppppqqqqrrrrrsssssttttttuuuuuuuvvvvvvvwwwwwwwwwwwxxxxxxxxxxxxxxxxxxxxxxxxxxxxxxxxxxxxxxxxwwwwwwwwwwwvvvvvvvuuuuuuuttttttsssssrrrrrqqqqppppooooonnnnmmmllllkkkkjjjiiiihhhggggfffeeeddddcccbbbaaa-..-
(PID.TID 0000.0001) //     88 -..-aaabbbccccdddeeeffffggghhhiiiijjjjkkkllllmmmmnnnnooooppppqqqqqrrrrrsssssttttttuuuuuuuvvvvvvvvwwwwwwwwwwxxxxxxxxxxxxxxxxxxxxxxxxxxxxxxxxxxxxxxwwwwwwwwwwvvvvvvvvuuuuuuuttttttsssssrrrrrqqqqqppppoooonnnnmmmmllllkkkjjjjiiiihhhgggffffeeedddccccbbbaaa-..-
(PID.TID 0000.0001) //     87 -..-aaabbbccccdddeeeffffggghhhhiiijjjjkkkllllmmmmnnnnoooopppppqqqqrrrrrssssssttttttuuuuuuuvvvvvvvvwwwwwwwwwwwwxxxxxxxxxxxxxxxxxxxxxxxxxxxxxxxxwwwwwwwwwwwwvvvvvvvvuuuuuuuttttttssssssrrrrrqqqqpppppoooonnnnmmmmllllkkkjjjjiiihhhhgggffffeeedddccccbbbaaa-..-
(PID.TID 0000.0001) //     86 -..-aaabbbccccdddeeeffffggghhhhiiijjjjkkkkllllmmmmnnnnooooppppqqqqqrrrrrssssssttttttuuuuuuuvvvvvvvvwwwwwwwwwwwwwxxxxxxxxxxxxxxxxxxxxxxxxxxxxwwwwwwwwwwwwwvvvvvvvvuuuuuuuttttttssssssrrrrrqqqqqppppoooonnnnmmmmllllkkkkjjjjiiihhhhgggffffeeedddccccbbbaaa-..-
(PID.TID 0000.0001) //     85 -..-aaabbbccccdddeeeefffggghhhhiiiijjjkkkkllllmmmmnnnnoooopppppqqqqqrrrrrssssstttttttuuuuuuuvvvvvvvvvwwwwwwwwwwwwwwwxxxxxxxxxxxxxxxxxxxxwwwwwwwwwwwwwwwvvvvvvvvvuuuuuuutttttttsssssrrrrrqqqqqpppppoooonnnnmmmmllllkkkkjjjiiiihhhhgggfffeeeedddccccbbbaaa-..-
(PID.TID 0000.0001) //     84 -..-aaabbbccccdddeeeefffgggghhhiiiijjjjkkkllllmmmmnnnnoooooppppqqqqqrrrrrsssssstttttttuuuuuuuvvvvvvvvvvwwwwwwwwwwwwwwwwwwwxxxxxxxxwwwwwwwwwwwwwwwwwwwvvvvvvvvvvuuuuuuutttttttssssssrrrrrqqqqqppppooooonnnnmmmmllllkkkjjjjiiiihhhggggfffeeeedddccccbbbaaa-..-
(PID.TID 0000.0001) //     83 -..-aaabbbccccdddeeeefffgggghhhiiiijjjjkkkkllllmmmmnnnnoooopppppqqqqqrrrrrsssssstttttttuuuuuuuvvvvvvvvvvvwwwwwwwwwwwwwwwwwwwwwwwwwwwwwwwwwwwwwwwwwwvvvvvvvvvvvuuuuuuutttttttssssssrrrrrqqqqqpppppoooonnnnmmmmllllkkkkjjjjiiiihhhggggfffeeeedddccccbbbaaa-..-
(PID.TID 0000.0001) //     82 -..-aaabbbbcccdddeeeefffgggghhhhiiijjjjkkkkllllmmmmnnnnooooopppppqqqqqrrrrrsssssstttttttuuuuuuuuvvvvvvvvvvvwwwwwwwwwwwwwwwwwwwwwwwwwwwwwwwwwwwwwwvvvvvvvvvvvuuuuuuuutttttttssssssrrrrrqqqqqpppppooooonnnnmmmmllllkkkkjjjjiiihhhhggggfffeeeedddcccbbbbaaa-..-
(PID.TID 0000.0001) //     81 -..-aaabbbbcccddddeeeffffggghhhhiiiijjjkkkkllllmmmmmnnnnoooopppppqqqqqrrrrrrsssssstttttttuuuuuuuuvvvvvvvvvvvvwwwwwwwwwwwwwwwwwwwwwwwwwwwwwwwwwwvvvvvvvvvvvvuuuuuuuutttttttssssssrrrrrrqqqqqpppppoooonnnnmmmmmllllkkkkjjjiiiihhhhgggffffeeeddddcccbbbbaaa-..-
(PID.TID 0000.0001) //     80 -..-aaabbbbcccddddeeeffffggghhhhiiiijjjjkkkkllllmmmmnnnnooooopppppqqqqqrrrrrrsssssstttttttuuuuuuuuuvvvvvvvvvvvvvvwwwwwwwwwwwwwwwwwwwwwwwwwwvvvvvvvvvvvvvvuuuuuuuuutttttttssssssrrrrrrqqqqqpppppooooonnnnmmmmllllkkkkjjjjiiiihhhhgggffffeeeddddcccbbbbaaa-..-
(PID.TID 0000.0001) //     79 -..-aaabbbbcccddddeeeffffgggghhhiiiijjjjkkkkllllmmmmnnnnnoooooppppqqqqqqrrrrrrsssssstttttttuuuuuuuuuuvvvvvvvvvvvvvvvvwwwwwwwwwwwwwwwwwwvvvvvvvvvvvvvvvvuuuuuuuuuutttttttssssssrrrrrrqqqqqqppppooooonnnnnmmmmllllkkkkjjjjiiiihhhggggffffeeeddddcccbbbbaaa-..-
(PID.TID 0000.0001) //     78 -..-aaabbbbcccddddeeeefffgggghhhhiiiijjjkkkklllllmmmmnnnnooooopppppqqqqqqrrrrrsssssssttttttttuuuuuuuuuuvvvvvvvvvvvvvvvvvvvvvvvvvvvvvvvvvvvvvvvvvvvvvvuuuuuuuuuuttttttttsssssssrrrrrqqqqqqpppppooooonnnnmmmmlllllkkkkjjjiiiihhhhggggfffeeeeddddcccbbbbaaa-..-
(PID.TID 0000.0001) //     77 -..-aaabbbbcccddddeeeefffgggghhhhiiiijjjjkkkkllllmmmmnnnnnooooopppppqqqqqrrrrrrsssssssttttttttuuuuuuuuuuuvvvvvvvvvvvvvvvvvvvvvvvvvvvvvvvvvvvvvvvvvvuuuuuuuuuuuttttttttsssssssrrrrrrqqqqqpppppooooonnnnnmmmmllllkkkkjjjjiiiihhhhggggfffeeeeddddcccbbbbaaa-..-
(PID.TID 0000.0001) //     76 -..-aaabbbbccccdddeeeeffffggghhhhiiiijjjjkkkklllllmmmmnnnnnooooopppppqqqqqrrrrrrrsssssssttttttttuuuuuuuuuuuuvvvvvvvvvvvvvvvvvvvvvvvvvvvvvvvvvvvvuuuuuuuuuuuuttttttttsssssssrrrrrrrqqqqqpppppooooonnnnnmmmmlllllkkkkjjjjiiiihhhhgggffffeeeedddccccbbbbaaa-..-
(PID.TID 0000.0001) //     75 -..-aaabbbbccccdddeeeeffffgggghhhhiiiijjjjkkkkllllmmmmmnnnnoooooppppppqqqqqrrrrrrrssssssstttttttttuuuuuuuuuuuuuuvvvvvvvvvvvvvvvvvvvvvvvvvvvvuuuuuuuuuuuuuutttttttttsssssssrrrrrrrqqqqqppppppooooonnnnmmmmmllllkkkkjjjjiiiihhhhggggffffeeeedddccccbbbbaaa-..-
(PID.TID 0000.0001) //     74 -..-aaaabbbccccddddeeeffffgggghhhhiiiijjjjkkkklllllmmmmnnnnnooooopppppqqqqqqrrrrrrrsssssssttttttttttuuuuuuuuuuuuuuuuvvvvvvvvvvvvvvvvvvvvuuuuuuuuuuuuuuuuttttttttttsssssssrrrrrrrqqqqqqpppppooooonnnnnmmmmlllllkkkkjjjjiiiihhhhggggffffeeeddddccccbbbaaaa-..-
(PID.TID 0000.0001) //     73 -..-aaaabbbccccddddeeeffffgggghhhhiiiijjjjkkkkkllllmmmmmnnnnnooooopppppqqqqqqrrrrrrrssssssssttttttttttuuuuuuuuuuuuuuuuuuuuuuuuuuuuuuuuuuuuuuuuuuuuuuuuttttttttttssssssssrrrrrrrqqqqqqpppppooooonnnnnmmmmmllllkkkkkjjjjiiiihhhhggggffffeeeddddccccbbbaaaa-..-
(PID.TID 0000.0001) //     72 -..-aaaabbbccccddddeeeeffffgggghhhhiiiijjjjkkkklllllmmmmnnnnnoooooopppppqqqqqqrrrrrrrssssssssstttttttttttuuuuuuuuuuuuuuuuuuuuuuuuuuuuuuuuuuuuuuuuuutttttttttttsssssssssrrrrrrrqqqqqqpppppoooooonnnnnmmmmlllllkkkkjjjjiiiihhhhggggffffeeeeddddccccbbbaaaa-..-
(PID.TID 0000.0001) //     71 -..-aaaabbbccccddddeeeeffffgggghhhhiiiijjjjkkkkkllllmmmmmnnnnnoooooppppppqqqqqqqrrrrrrrsssssssssttttttttttttuuuuuuuuuuuuuuuuuuuuuuuuuuuuuuuuuuuuttttttttttttsssssssssrrrrrrrqqqqqqqppppppooooonnnnnmmmmmllllkkkkkjjjjiiiihhhhggggffffeeeeddddccccbbbaaaa-..-
(PID.TID 0000.0001) //     70 -..-aaaabbbbcccddddeeeeffffgggghhhhiiiijjjjjkkkklllllmmmmmnnnnnoooooppppppqqqqqqqrrrrrrrssssssssssttttttttttttttuuuuuuuuuuuuuuuuuuuuuuuuuuuuttttttttttttttssssssssssrrrrrrrqqqqqqqppppppooooonnnnnmmmmmlllllkkkkjjjjjiiiihhhhggggffffeeeeddddcccbbbbaaaa-..-
(PID.TID 0000.0001) //     69 -..-aaaabbbbccccdddeeeeffffgggghhhhhiiiijjjjkkkkklllllmmmmnnnnnnoooooppppppqqqqqqqrrrrrrrrssssssssssttttttttttttttttttuuuuuuuuuuuuuuuuttttttttttttttttttssssssssssrrrrrrrrqqqqqqqppppppooooonnnnnnmmmmlllllkkkkkjjjjiiiihhhhhggggffffeeeedddccccbbbbaaaa-..-
(PID.TID 0000.0001) //     68 -..-aaaabbbbccccddddeeeeffffgggghhhhiiiijjjjjkkkklllllmmmmmnnnnnnooooopppppppqqqqqqqrrrrrrrrsssssssssssttttttttttttttttttttttttttttttttttttttttttttttsssssssssssrrrrrrrrqqqqqqqpppppppooooonnnnnnmmmmmlllllkkkkjjjjjiiiihhhhggggffffeeeeddddccccbbbbaaaa-..-
(PID.TID 0000.0001) //     67 -..-aaaabbbbccccddddeeeeffffgggghhhhiiiiijjjjkkkkklllllmmmmmnnnnnoooooopppppppqqqqqqqrrrrrrrrrssssssssssssttttttttttttttttttttttttttttttttttttttttssssssssssssrrrrrrrrrqqqqqqqpppppppoooooonnnnnmmmmmlllllkkkkkjjjjiiiiihhhhggggffffeeeeddddccccbbbbaaaa-..-
(PID.TID 0000.0001) //     66 -..-aaaabbbbccccddddeeeeffffggggghhhhiiiijjjjjkkkkklllllmmmmmnnnnnoooooopppppppqqqqqqqqrrrrrrrrrssssssssssssssttttttttttttttttttttttttttttttttssssssssssssssrrrrrrrrrqqqqqqqqpppppppoooooonnnnnmmmmmlllllkkkkkjjjjjiiiihhhhgggggffffeeeeddddccccbbbbaaaa-..-
(PID.TID 0000.0001) //     65 -..-aaaabbbbccccddddeeeefffffgggghhhhiiiiijjjjkkkkklllllmmmmmmnnnnnoooooooppppppqqqqqqqqrrrrrrrrrrsssssssssssssssssttttttttttttttttttttttsssssssssssssssssrrrrrrrrrrqqqqqqqqppppppooooooonnnnnmmmmmmlllllkkkkkjjjjiiiiihhhhggggfffffeeeeddddccccbbbbaaaa-..-
(PID.TID 0000.0001) //     64 -..-aaaabbbbccccddddeeeeeffffgggghhhhhiiiijjjjjkkkkklllllmmmmmmnnnnnooooooopppppppqqqqqqqqrrrrrrrrrrrssssssssssssssssssssssssssssssssssssssssssssssssssrrrrrrrrrrrqqqqqqqqpppppppooooooonnnnnmmmmmmlllllkkkkkjjjjjiiiihhhhhggggffffeeeeeddddccccbbbbaaaa-..-
(PID.TID 0000.0001) //     63 -..-aaaabbbbccccdddddeeeeffffggggghhhhiiiiijjjjjkkkkklllllmmmmmmnnnnnnooooooppppppppqqqqqqqqrrrrrrrrrrrrssssssssssssssssssssssssssssssssssssssssssssrrrrrrrrrrrrqqqqqqqqppppppppoooooonnnnnnmmmmmmlllllkkkkkjjjjjiiiiihhhhgggggffffeeeedddddccccbbbbaaaa-..-
(PID.TID 0000.0001) //     62 -..-aaaabbbbcccccddddeeeefffffgggghhhhhiiiijjjjjkkkkkllllllmmmmmmnnnnnnooooooopppppppqqqqqqqqqqrrrrrrrrrrrrrssssssssssssssssssssssssssssssssssssrrrrrrrrrrrrrqqqqqqqqqqpppppppooooooonnnnnnmmmmmmllllllkkkkkjjjjjiiiihhhhhggggfffffeeeeddddcccccbbbbaaaa-..-
(PID.TID 0000.0001) //     61 -..-aaaabbbbbccccddddeeeeeffffggggghhhhiiiiijjjjjkkkkkllllllmmmmmmnnnnnnoooooooppppppppqqqqqqqqqqrrrrrrrrrrrrrrrrrssssssssssssssssssssssssrrrrrrrrrrrrrrrrrqqqqqqqqqqppppppppooooooonnnnnnmmmmmmllllllkkkkkjjjjjiiiiihhhhgggggffffeeeeeddddccccbbbbbaaaa-..-
(PID.TID 0000.0001) //     60 -..-aaaabbbbbccccddddeeeeeffffggggghhhhhiiiiijjjjjkkkkkllllllmmmmmmnnnnnnooooooooppppppppqqqqqqqqqqqrrrrrrrrrrrrrrrrrrrrrrrrrrrrrrrrrrrrrrrrrrrrrrrrrrrrqqqqqqqqqqqppppppppoooooooonnnnnnmmmmmmllllllkkkkkjjjjjiiiiihhhhhgggggffffeeeeeddddccccbbbbbaaaa-..-
(PID.TID 0000.0001) //     59 -..-aaaaabbbbccccdddddeeeefffffggggghhhhiiiiijjjjjkkkkkkllllllmmmmmmnnnnnnnooooooopppppppppqqqqqqqqqqqqqrrrrrrrrrrrrrrrrrrrrrrrrrrrrrrrrrrrrrrrrrrrrqqqqqqqqqqqqqpppppppppooooooonnnnnnnmmmmmmllllllkkkkkkjjjjjiiiiihhhhgggggfffffeeeedddddccccbbbbaaaaa-..-
(PID.TID 0000.0001) //     58 -..-aaaaabbbbcccccddddeeeeeffffggggghhhhhiiiiijjjjjkkkkkkllllllmmmmmmnnnnnnnooooooooppppppppppqqqqqqqqqqqqqqrrrrrrrrrrrrrrrrrrrrrrrrrrrrrrrrrrrrqqqqqqqqqqqqqqppppppppppoooooooonnnnnnnmmmmmmllllllkkkkkkjjjjjiiiiihhhhhgggggffffeeeeeddddcccccbbbbaaaaa-..-
(PID.TID 0000.0001) //     57 -..-aaaaabbbbcccccddddeeeeefffffggggghhhhhiiiiijjjjjkkkkkkllllllmmmmmmnnnnnnnnoooooooopppppppppppqqqqqqqqqqqqqqqqqrrrrrrrrrrrrrrrrrrrrrrrrqqqqqqqqqqqqqqqqqpppppppppppoooooooonnnnnnnnmmmmmmllllllkkkkkkjjjjjiiiiihhhhhgggggfffffeeeeeddddcccccbbbbaaaaa-..-
(PID.TID 0000.0001) //     56 -..-aaaaabbbbcccccdddddeeeefffffggggghhhhhiiiiijjjjjjkkkkkkllllllmmmmmmmnnnnnnnoooooooooppppppppppppqqqqqqqqqqqqqqqqqqqqqqqqqqqqqqqqqqqqqqqqqqqqqqqqqqqqppppppppppppooooooooonnnnnnnmmmmmmmllllllkkkkkkjjjjjjiiiiihhhhhgggggfffffeeeedddddcccccbbbbaaaaa-..-
(PID.TID 0000.0001) //     55 -..-aaaaabbbbbccccdddddeeeeefffffggggghhhhhiiiiijjjjjjkkkkkkllllllmmmmmmmnnnnnnnnoooooooooopppppppppppppqqqqqqqqqqqqqqqqqqqqqqqqqqqqqqqqqqqqqqqqqqqqpppppppppppppoooooooooonnnnnnnnmmmmmmmllllllkkkkkkjjjjjjiiiiihhhhhgggggfffffeeeeedddddccccbbbbbaaaaa-..-
(PID.TID 0000.0001) //     54 -..-aaaaabbbbbccccdddddeeeeefffffggggghhhhhhiiiiijjjjjjkkkkkklllllllmmmmmmmnnnnnnnnoooooooooopppppppppppppppqqqqqqqqqqqqqqqqqqqqqqqqqqqqqqqqqqqqpppppppppppppppoooooooooonnnnnnnnmmmmmmmlllllllkkkkkkjjjjjjiiiiihhhhhhgggggfffffeeeeedddddccccbbbbbaaaaa-..-
(PID.TID 0000.0001) //     53 -..-aaaaabbbbbcccccdddddeeeeefffffggggghhhhhiiiiiijjjjjjkkkkkklllllllmmmmmmmmnnnnnnnnooooooooooopppppppppppppppppppqqqqqqqqqqqqqqqqqqqqqqpppppppppppppppppppooooooooooonnnnnnnnmmmmmmmmlllllllkkkkkkjjjjjjiiiiiihhhhhgggggfffffeeeeedddddcccccbbbbbaaaaa-..-
(PID.TID 0000.0001) //     52 -..-aaaaabbbbbcccccdddddeeeeefffffgggggghhhhhiiiiiijjjjjjkkkkkkllllllllmmmmmmmnnnnnnnnnnooooooooooooppppppppppppppppppppppppppppppppppppppppppppppppppppoooooooooooonnnnnnnnnnmmmmmmmllllllllkkkkkkjjjjjjiiiiiihhhhhggggggfffffeeeeedddddcccccbbbbbaaaaa-..-
(PID.TID 0000.0001) //     51 -..-aaaaabbbbbcccccdddddeeeeeefffffggggghhhhhhiiiiiijjjjjjkkkkkkklllllllmmmmmmmmnnnnnnnnnnooooooooooooooppppppppppppppppppppppppppppppppppppppppppppoooooooooooooonnnnnnnnnnmmmmmmmmlllllllkkkkkkkjjjjjjiiiiiihhhhhhgggggfffffeeeeeedddddcccccbbbbbaaaaa-..-
(PID.TID 0000.0001) //     50 -..--aaaaabbbbbcccccdddddeeeeefffffgggggghhhhhhiiiiiijjjjjjkkkkkkkllllllllmmmmmmmmmnnnnnnnnnnoooooooooooooooooppppppppppppppppppppppppppppppppooooooooooooooooonnnnnnnnnnmmmmmmmmmllllllllkkkkkkkjjjjjjiiiiiihhhhhhggggggfffffeeeeedddddcccccbbbbbaaaaa--..-
(PID.TID 0000.0001) //     49 -..--aaaaabbbbbcccccdddddeeeeeefffffgggggghhhhhhiiiiiijjjjjjkkkkkkkkllllllllmmmmmmmmmnnnnnnnnnnnnooooooooooooooooooooooppppppppppppppoooooooooooooooooooooonnnnnnnnnnnnmmmmmmmmmllllllllkkkkkkkkjjjjjjiiiiiihhhhhhggggggfffffeeeeeedddddcccccbbbbbaaaaa--..-
(PID.TID 0000.0001) //     48 -..--aaaaabbbbbcccccddddddeeeeeffffffgggggghhhhhhiiiiiijjjjjjjkkkkkkklllllllllmmmmmmmmmmnnnnnnnnnnnnnoooooooooooooooooooooooooooooooooooooooooooooooooonnnnnnnnnnnnnmmmmmmmmmmlllllllllkkkkkkkjjjjjjjiiiiiihhhhhhggggggffffffeeeeeddddddcccccbbbbbaaaaa--..-
(PID.TID 0000.0001) //     47 -..--aaaaabbbbbccccccdddddeeeeeefffffgggggghhhhhhhiiiiiijjjjjjjkkkkkkkklllllllllmmmmmmmmmmnnnnnnnnnnnnnnnnoooooooooooooooooooooooooooooooooooooooonnnnnnnnnnnnnnnnmmmmmmmmmmlllllllllkkkkkkkkjjjjjjjiiiiiihhhhhhhggggggfffffeeeeeedddddccccccbbbbbaaaaa--..-
(PID.TID 0000.0001) //     46 -..--aaaaabbbbbbcccccddddddeeeeeffffffgggggghhhhhhhiiiiiijjjjjjjjkkkkkkkklllllllllmmmmmmmmmmmmnnnnnnnnnnnnnnnnnnnoooooooooooooooooooooooooonnnnnnnnnnnnnnnnnnnmmmmmmmmmmmmlllllllllkkkkkkkkjjjjjjjjiiiiiihhhhhhhggggggffffffeeeeeddddddcccccbbbbbbaaaaa--..-
(PID.TID 0000.0001) //     45 -..--aaaaabbbbbbcccccddddddeeeeeeffffffgggggghhhhhhhiiiiiiijjjjjjjkkkkkkkkkllllllllllmmmmmmmmmmmmmnnnnnnnnnnnnnnnnnnnnnnnnnnnnnnnnnnnnnnnnnnnnnnnnnnnnnnnnmmmmmmmmmmmmmllllllllllkkkkkkkkkjjjjjjjiiiiiiihhhhhhhggggggffffffeeeeeeddddddcccccbbbbbbaaaaa--..-
(PID.TID 0000.0001) //     44 -..--aaaaabbbbbbccccccddddddeeeeeeffffffgggggghhhhhhhiiiiiiijjjjjjjjkkkkkkkkklllllllllllmmmmmmmmmmmmmmnnnnnnnnnnnnnnnnnnnnnnnnnnnnnnnnnnnnnnnnnnnnnnnnmmmmmmmmmmmmmmlllllllllllkkkkkkkkkjjjjjjjjiiiiiiihhhhhhhggggggffffffeeeeeeddddddccccccbbbbbbaaaaa--..-
(PID.TID 0000.0001) //     43 -..--aaaaaabbbbbccccccddddddeeeeeefffffffgggggghhhhhhhiiiiiiiijjjjjjjjkkkkkkkkkllllllllllllmmmmmmmmmmmmmmmmmnnnnnnnnnnnnnnnnnnnnnnnnnnnnnnnnnnnnmmmmmmmmmmmmmmmmmllllllllllllkkkkkkkkkjjjjjjjjiiiiiiiihhhhhhhggggggfffffffeeeeeeddddddccccccbbbbbaaaaaa--..-
(PID.TID 0000.0001) //     42 -..--aaaaaabbbbbbccccccddddddeeeeeefffffffgggggghhhhhhhhiiiiiiijjjjjjjjjkkkkkkkkkklllllllllllllmmmmmmmmmmmmmmmmmmmmmmmmmnnnnnnnnnnnnmmmmmmmmmmmmmmmmmmmmmmmmmlllllllllllllkkkkkkkkkkjjjjjjjjjiiiiiiihhhhhhhhggggggfffffffeeeeeeddddddccccccbbbbbbaaaaaa--..-
(PID.TID 0000.0001) //     41 -..--aaaaaabbbbbbccccccddddddeeeeeeefffffffggggggghhhhhhhiiiiiiiijjjjjjjjjkkkkkkkkkkkllllllllllllllmmmmmmmmmmmmmmmmmmmmmmmmmmmmmmmmmmmmmmmmmmmmmmmmmmmmmmllllllllllllllkkkkkkkkkkkjjjjjjjjjiiiiiiiihhhhhhhgggggggfffffffeeeeeeeddddddccccccbbbbbbaaaaaa--..-
(PID.TID 0000.0001) //     40 -..--aaaaaabbbbbbcccccccddddddeeeeeeefffffffggggggghhhhhhhhiiiiiiiijjjjjjjjjjkkkkkkkkkkklllllllllllllllllmmmmmmmmmmmmmmmmmmmmmmmmmmmmmmmmmmmmmmmmmmlllllllllllllllllkkkkkkkkkkkjjjjjjjjjjiiiiiiiihhhhhhhhgggggggfffffffeeeeeeeddddddcccccccbbbbbbaaaaaa--..-
(PID.TID 0000.0001) //     39 -..--aaaaaabbbbbbbccccccdddddddeeeeeeefffffffggggggghhhhhhhhiiiiiiiiijjjjjjjjjjkkkkkkkkkkkkkllllllllllllllllllllllmmmmmmmmmmmmmmmmmmmmmmmmllllllllllllllllllllllkkkkkkkkkkkkkjjjjjjjjjjiiiiiiiiihhhhhhhhgggggggfffffffeeeeeeedddddddccccccbbbbbbbaaaaaa--..-
(PID.TID 0000.0001) //     38 -..--aaaaaaabbbbbbcccccccddddddeeeeeeeffffffffgggggggghhhhhhhhiiiiiiiiijjjjjjjjjjjkkkkkkkkkkkkkkkllllllllllllllllllllllllllllllllllllllllllllllllllllllllllkkkkkkkkkkkkkkkjjjjjjjjjjjiiiiiiiiihhhhhhhhggggggggffffffffeeeeeeeddddddcccccccbbbbbbaaaaaaa--..-
(PID.TID 0000.0001) //     37 -..--aaaaaaabbbbbbbccccccdddddddeeeeeeeffffffffgggggggghhhhhhhhhiiiiiiiiiijjjjjjjjjjjjkkkkkkkkkkkkkkkkllllllllllllllllllllllllllllllllllllllllllllllllkkkkkkkkkkkkkkkkjjjjjjjjjjjjiiiiiiiiiihhhhhhhhhggggggggffffffffeeeeeeedddddddccccccbbbbbbbaaaaaaa--..-
(PID.TID 0000.0001) //     36 -..--aaaaaaabbbbbbbcccccccdddddddeeeeeeeefffffffggggggggghhhhhhhhhiiiiiiiiiiijjjjjjjjjjjjjkkkkkkkkkkkkkkkkkkkkllllllllllllllllllllllllllllllllkkkkkkkkkkkkkkkkkkkkjjjjjjjjjjjjjiiiiiiiiiiihhhhhhhhhgggggggggfffffffeeeeeeeedddddddcccccccbbbbbbbaaaaaaa--..-
(PID.TID 0000.0001) //     35 -..---aaaaaabbbbbbbccccccccdddddddeeeeeeeeffffffffggggggggghhhhhhhhhiiiiiiiiiiiijjjjjjjjjjjjjjkkkkkkkkkkkkkkkkkkkkkkkkkkkkkkkkkkkkkkkkkkkkkkkkkkkkkkkkkkkkkkkkjjjjjjjjjjjjjjiiiiiiiiiiiihhhhhhhhhgggggggggffffffffeeeeeeeedddddddccccccccbbbbbbbaaaaaa---..-
(PID.TID 0000.0001) //     34 -..---aaaaaaabbbbbbbcccccccddddddddeeeeeeeeffffffffgggggggggghhhhhhhhhhiiiiiiiiiiiijjjjjjjjjjjjjjjjjkkkkkkkkkkkkkkkkkkkkkkkkkkkkkkkkkkkkkkkkkkkkkkkkkkkkjjjjjjjjjjjjjjjjjiiiiiiiiiiiihhhhhhhhhhggggggggggffffffffeeeeeeeeddddddddcccccccbbbbbbbaaaaaaa---..-
(PID.TID 0000.0001) //     33 -..---aaaaaaabbbbbbbccccccccddddddddeeeeeeeefffffffffgggggggggghhhhhhhhhhhiiiiiiiiiiiiijjjjjjjjjjjjjjjjjjjjkkkkkkkkkkkkkkkkkkkkkkkkkkkkkkkkkkkkkkjjjjjjjjjjjjjjjjjjjjiiiiiiiiiiiiihhhhhhhhhhhggggggggggfffffffffeeeeeeeeddddddddccccccccbbbbbbbaaaaaaa---..-
(PID.TID 0000.0001) //     32 -..---aaaaaaabbbbbbbbccccccccddddddddeeeeeeeeefffffffffgggggggggghhhhhhhhhhhhiiiiiiiiiiiiiiijjjjjjjjjjjjjjjjjjjjjjjjjjjjjjjjjjjjjjjjjjjjjjjjjjjjjjjjjjjjjjjjjjjjiiiiiiiiiiiiiiihhhhhhhhhhhhggggggggggfffffffffeeeeeeeeeddddddddccccccccbbbbbbbbaaaaaaa---..-
(PID.TID 0000.0001) //     31 -..---aaaaaaaabbbbbbbbccccccccddddddddeeeeeeeeeffffffffffggggggggggghhhhhhhhhhhhiiiiiiiiiiiiiiiiijjjjjjjjjjjjjjjjjjjjjjjjjjjjjjjjjjjjjjjjjjjjjjjjjjjjjjjjjjiiiiiiiiiiiiiiiiihhhhhhhhhhhhgggggggggggffffffffffeeeeeeeeeddddddddccccccccbbbbbbbbaaaaaaaa---..-
(PID.TID 0000.0001) //     30 -..---aaaaaaaabbbbbbbbcccccccccddddddddeeeeeeeeeeffffffffffggggggggggghhhhhhhhhhhhhhiiiiiiiiiiiiiiiiiiiiijjjjjjjjjjjjjjjjjjjjjjjjjjjjjjjjjjjjjjjjjjiiiiiiiiiiiiiiiiiiiiihhhhhhhhhhhhhhgggggggggggffffffffffeeeeeeeeeeddddddddcccccccccbbbbbbbbaaaaaaaa---..-
(PID.TID 0000.0001) //     29 -..---aaaaaaaaabbbbbbbbcccccccccdddddddddeeeeeeeeeeffffffffffggggggggggggghhhhhhhhhhhhhhhiiiiiiiiiiiiiiiiiiiiiiiiiiiiiiijjjjjjjjjjjjiiiiiiiiiiiiiiiiiiiiiiiiiiiiiiihhhhhhhhhhhhhhhgggggggggggggffffffffffeeeeeeeeeedddddddddcccccccccbbbbbbbbaaaaaaaaa---..-
(PID.TID 0000.0001) //     28 -..---aaaaaaaaabbbbbbbbbcccccccccdddddddddeeeeeeeeeeefffffffffffggggggggggggghhhhhhhhhhhhhhhhhhiiiiiiiiiiiiiiiiiiiiiiiiiiiiiiiiiiiiiiiiiiiiiiiiiiiiiiiiiiiiiihhhhhhhhhhhhhhhhhhgggggggggggggfffffffffffeeeeeeeeeeedddddddddcccccccccbbbbbbbbbaaaaaaaaa---..-
(PID.TID 0000.0001) //     27 -..----aaaaaaaabbbbbbbbbbcccccccccddddddddddeeeeeeeeeeeffffffffffffgggggggggggggghhhhhhhhhhhhhhhhhhhhhhiiiiiiiiiiiiiiiiiiiiiiiiiiiiiiiiiiiiiiiiiiiiiihhhhhhhhhhhhhhhhhhhhhhggggggggggggggffffffffffffeeeeeeeeeeeddddddddddcccccccccbbbbbbbbbbaaaaaaaa----..-
(PID.TID 0000.0001) //     26 -..----aaaaaaaaabbbbbbbbbccccccccccdddddddddddeeeeeeeeeeefffffffffffffgggggggggggggggghhhhhhhhhhhhhhhhhhhhhhhhhhhhhhiiiiiiiiiiiiiiiiiiiihhhhhhhhhhhhhhhhhhhhhhhhhhhhhhggggggggggggggggfffffffffffffeeeeeeeeeeedddddddddddccccccccccbbbbbbbbbaaaaaaaaa----..-
(PID.TID 0000.0001) //     25 -..----aaaaaaaaaabbbbbbbbbcccccccccccdddddddddddeeeeeeeeeeeeffffffffffffffgggggggggggggggggghhhhhhhhhhhhhhhhhhhhhhhhhhhhhhhhhhhhhhhhhhhhhhhhhhhhhhhhhhhhhhhhhhhhggggggggggggggggggffffffffffffffeeeeeeeeeeeedddddddddddcccccccccccbbbbbbbbbaaaaaaaaaa----..-
(PID.TID 0000.0001) //     24 -..----aaaaaaaaaabbbbbbbbbbcccccccccccddddddddddddeeeeeeeeeeeeefffffffffffffffgggggggggggggggggggggghhhhhhhhhhhhhhhhhhhhhhhhhhhhhhhhhhhhhhhhhhhhhhhhhhhhggggggggggggggggggggggfffffffffffffffeeeeeeeeeeeeeddddddddddddcccccccccccbbbbbbbbbbaaaaaaaaaa----..-
(PID.TID 0000.0001) //     23 -..----aaaaaaaaaaabbbbbbbbbbbcccccccccccddddddddddddeeeeeeeeeeeeeefffffffffffffffffggggggggggggggggggggggggggggggghhhhhhhhhhhhhhhhhhhhhhhhgggggggggggggggggggggggggggggggfffffffffffffffffeeeeeeeeeeeeeeddddddddddddcccccccccccbbbbbbbbbbbaaaaaaaaaaa----..-
(PID.TID 0000.0001) //     22 -..-----aaaaaaaaaaabbbbbbbbbbbccccccccccccdddddddddddddeeeeeeeeeeeeeeeffffffffffffffffffffggggggggggggggggggggggggggggggggggggggggggggggggggggggggggggggggggggggggffffffffffffffffffffeeeeeeeeeeeeeeedddddddddddddccccccccccccbbbbbbbbbbbaaaaaaaaaaa-----..-
(PID.TID 0000.0001) //     21 -..-----aaaaaaaaaaabbbbbbbbbbbbcccccccccccccddddddddddddddeeeeeeeeeeeeeeeeffffffffffffffffffffffffggggggggggggggggggggggggggggggggggggggggggggggggggggggggffffffffffffffffffffffffeeeeeeeeeeeeeeeeddddddddddddddcccccccccccccbbbbbbbbbbbbaaaaaaaaaaa-----..-
(PID.TID 0000.0001) //     20 -..-----aaaaaaaaaaaabbbbbbbbbbbbbcccccccccccccdddddddddddddddeeeeeeeeeeeeeeeeeeefffffffffffffffffffffffffffffffffggggggggggggggggggggggggggfffffffffffffffffffffffffffffffffeeeeeeeeeeeeeeeeeeedddddddddddddddcccccccccccccbbbbbbbbbbbbbaaaaaaaaaaaa-----..-
(PID.TID 0000.0001) //     19 -..-----aaaaaaaaaaaaabbbbbbbbbbbbbcccccccccccccccddddddddddddddddeeeeeeeeeeeeeeeeeeeeeeffffffffffffffffffffffffffffffffffffffffffffffffffffffffffffffffffffffffffffffeeeeeeeeeeeeeeeeeeeeeeddddddddddddddddcccccccccccccccbbbbbbbbbbbbbaaaaaaaaaaaaa-----..-
(PID.TID 0000.0001) //     18 -..------aaaaaaaaaaaaabbbbbbbbbbbbbbccccccccccccccccddddddddddddddddddeeeeeeeeeeeeeeeeeeeeeeeeeeffffffffffffffffffffffffffffffffffffffffffffffffffffffffffffeeeeeeeeeeeeeeeeeeeeeeeeeeddddddddddddddddddccccccccccccccccbbbbbbbbbbbbbbaaaaaaaaaaaaa------..-
(PID.TID 0000.0001) //     17 -..------aaaaaaaaaaaaaaabbbbbbbbbbbbbbbccccccccccccccccdddddddddddddddddddddeeeeeeeeeeeeeeeeeeeeeeeeeeeeeeeeeeeffffffffffffffffffffffffffffffeeeeeeeeeeeeeeeeeeeeeeeeeeeeeeeeeeedddddddddddddddddddddccccccccccccccccbbbbbbbbbbbbbbbaaaaaaaaaaaaaaa------..-
(PID.TID 0000.0001) //     16 -..-------aaaaaaaaaaaaaaabbbbbbbbbbbbbbbbcccccccccccccccccccdddddddddddddddddddddddeeeeeeeeeeeeeeeeeeeeeeeeeeeeeeeeeeeeeeeeeeeeeeeeeeeeeeeeeeeeeeeeeeeeeeeeeeeeeeeeeeeeeedddddddddddddddddddddddcccccccccccccccccccbbbbbbbbbbbbbbbbaaaaaaaaaaaaaaa-------..-
(PID.TID 0000.0001) //     15 -..-------aaaaaaaaaaaaaaaaabbbbbbbbbbbbbbbbbccccccccccccccccccccdddddddddddddddddddddddddddddeeeeeeeeeeeeeeeeeeeeeeeeeeeeeeeeeeeeeeeeeeeeeeeeeeeeeeeeeeeeeeeeeedddddddddddddddddddddddddddddccccccccccccccccccccbbbbbbbbbbbbbbbbbaaaaaaaaaaaaaaaaa-------..-
(PID.TID 0000.0001) //     14 -..--------aaaaaaaaaaaaaaaaabbbbbbbbbbbbbbbbbbbbcccccccccccccccccccccccddddddddddddddddddddddddddddddddddddddddeeeeeeeeeeeeeeeeeeeeeeeeeeeeeeddddddddddddddddddddddddddddddddddddddddcccccccccccccccccccccccbbbbbbbbbbbbbbbbbbbbaaaaaaaaaaaaaaaaa--------..-
(PID.TID 0000.0001) //     13 -..--------aaaaaaaaaaaaaaaaaaaabbbbbbbbbbbbbbbbbbbbbccccccccccccccccccccccccccddddddddddddddddddddddddddddddddddddddddddddddddddddddddddddddddddddddddddddddddddddddddddddddddccccccccccccccccccccccccccbbbbbbbbbbbbbbbbbbbbbaaaaaaaaaaaaaaaaaaaa--------..-
(PID.TID 0000.0001) //     12 -..---------aaaaaaaaaaaaaaaaaaaaabbbbbbbbbbbbbbbbbbbbbbbbcccccccccccccccccccccccccccccccccddddddddddddddddddddddddddddddddddddddddddddddddddddddddddddddddddddddddcccccccccccccccccccccccccccccccccbbbbbbbbbbbbbbbbbbbbbbbbaaaaaaaaaaaaaaaaaaaaa---------..-
(PID.TID 0000.0001) //     11 -..----------aaaaaaaaaaaaaaaaaaaaaaabbbbbbbbbbbbbbbbbbbbbbbbbbbcccccccccccccccccccccccccccccccccccccccccccccccddddddddddddddddddddddddddddddddcccccccccccccccccccccccccccccccccccccccccccccccbbbbbbbbbbbbbbbbbbbbbbbbbbbaaaaaaaaaaaaaaaaaaaaaaa----------..-
(PID.TID 0000.0001) //     10 -..-----------aaaaaaaaaaaaaaaaaaaaaaaaaabbbbbbbbbbbbbbbbbbbbbbbbbbbbbbbbccccccccccccccccccccccccccccccccccccccccccccccccccccccccccccccccccccccccccccccccccccccccccccccccccccccccccccbbbbbbbbbbbbbbbbbbbbbbbbbbbbbbbbaaaaaaaaaaaaaaaaaaaaaaaaaa-----------..-
(PID.TID 0000.0001) //      9 -..-------------aaaaaaaaaaaaaaaaaaaaaaaaaaaaabbbbbbbbbbbbbbbbbbbbbbbbbbbbbbbbbbbbbbbccccccccccccccccccccccccccccccccccccccccccccccccccccccccccccccccccccccccccccccccccccbbbbbbbbbbbbbbbbbbbbbbbbbbbbbbbbbbbbbbbaaaaaaaaaaaaaaaaaaaaaaaaaaaaa-------------..-
(PID.TID 0000.0001) //      8 -..---------------aaaaaaaaaaaaaaaaaaaaaaaaaaaaaaaaaabbbbbbbbbbbbbbbbbbbbbbbbbbbbbbbbbbbbbbbbbbbbbbbbbbbbbbbbbbccccccccccccccccccccccccccccccccbbbbbbbbbbbbbbbbbbbbbbbbbbbbbbbbbbbbbbbbbbbbbbbbbbbbbbbbbbaaaaaaaaaaaaaaaaaaaaaaaaaaaaaaaaaa---------------..-
(PID.TID 0000.0001) //      7 -..-----------------aaaaaaaaaaaaaaaaaaaaaaaaaaaaaaaaaaaaaaaaabbbbbbbbbbbbbbbbbbbbbbbbbbbbbbbbbbbbbbbbbbbbbbbbbbbbbbbbbbbbbbbbbbbbbbbbbbbbbbbbbbbbbbbbbbbbbbbbbbbbbbbbbbbbbbbbbbbbbbbbbbbbbbbbbbaaaaaaaaaaaaaaaaaaaaaaaaaaaaaaaaaaaaaaaaa-----------------..-
(PID.TID 0000.0001) //      6 -..---------------------aaaaaaaaaaaaaaaaaaaaaaaaaaaaaaaaaaaaaaaaaaaaaaaaaaaabbbbbbbbbbbbbbbbbbbbbbbbbbbbbbbbbbbbbbbbbbbbbbbbbbbbbbbbbbbbbbbbbbbbbbbbbbbbbbbbbbbbbbbbbbbbbbbbbbbbaaaaaaaaaaaaaaaaaaaaaaaaaaaaaaaaaaaaaaaaaaaaaaaaaaaa---------------------..-
(PID.TID 0000.0001) //      5 -..--------------------------aaaaaaaaaaaaaaaaaaaaaaaaaaaaaaaaaaaaaaaaaaaaaaaaaaaaaaaaaaaaaaaaaaaaaaaaaaaaaaaaaabbbbbbbbbbbbbbbbbbbbbbbbbbbbbbaaaaaaaaaaaaaaaaaaaaaaaaaaaaaaaaaaaaaaaaaaaaaaaaaaaaaaaaaaaaaaaaaaaaaaaaaaaaaaaaaa--------------------------..-
(PID.TID 0000.0001) //      4 -..----------------------------------aaaaaaaaaaaaaaaaaaaaaaaaaaaaaaaaaaaaaaaaaaaaaaaaaaaaaaaaaaaaaaaaaaaaaaaaaaaaaaaaaaaaaaaaaaaaaaaaaaaaaaaaaaaaaaaaaaaaaaaaaaaaaaaaaaaaaaaaaaaaaaaaaaaaaaaaaaaaaaaaaaaaaaaaaaaaaaaaaa----------------------------------..-
(PID.TID 0000.0001) //      3 -..-------------------------------------------------aaaaaaaaaaaaaaaaaaaaaaaaaaaaaaaaaaaaaaaaaaaaaaaaaaaaaaaaaaaaaaaaaaaaaaaaaaaaaaaaaaaaaaaaaaaaaaaaaaaaaaaaaaaaaaaaaaaaaaaaaaaaaaaaaaaaaaaaaaaaaaaaaaaa-------------------------------------------------..-
(PID.TID 0000.0001) //      2 -..------------------------------------------------------------------------------------------------------------------aaaaaaaaaaaaaaaaaa------------------------------------------------------------------------------------------------------------------..-
(PID.TID 0000.0001) //      1 ............................................................................................................................................................................................................................................................
(PID.TID 0000.0001) //      0 ............................................................................................................................................................................................................................................................
(PID.TID 0000.0001) //     -1 -..------------------------------------------------------------------------------------------------------------------aaaaaaaaaaaaaaaaaa------------------------------------------------------------------------------------------------------------------..-
(PID.TID 0000.0001) // =======================================================
(PID.TID 0000.0001) // END OF FIELD                                          =
(PID.TID 0000.0001) // =======================================================
(PID.TID 0000.0001) 
(PID.TID 0000.0001) // =======================================================
(PID.TID 0000.0001) // Field Model Ro_surf (ini_masks_etc)
(PID.TID 0000.0001) // CMIN =          1.000000000000000E+32
(PID.TID 0000.0001) // CMAX =         -1.000000000000000E+32
(PID.TID 0000.0001) // CINT =          0.000000000000000E+00
(PID.TID 0000.0001) // SYMBOLS (CMIN->CMAX): -abcdefghijklmnopqrstuvwxyz+
(PID.TID 0000.0001) //                  0.0: .
(PID.TID 0000.0001) // RANGE I (Lo:Hi:Step):(    -1:   250:     1)
(PID.TID 0000.0001) // RANGE J (Lo:Hi:Step):(   250:    -1:    -1)
(PID.TID 0000.0001) // RANGE K (Lo:Hi:Step):(   1:   1:   1)
(PID.TID 0000.0001) // =======================================================
(PID.TID 0000.0001) // =======================================================
(PID.TID 0000.0001) // END OF FIELD                                          =
(PID.TID 0000.0001) // =======================================================
(PID.TID 0000.0001) 
(PID.TID 0000.0001) // =======================================================
(PID.TID 0000.0001) // Field hFacC at iteration          0
(PID.TID 0000.0001) // CMIN =          9.000040039062500E-01
(PID.TID 0000.0001) // CMAX =          9.999638671875001E-01
(PID.TID 0000.0001) // CINT =          3.702217158564817E-03
(PID.TID 0000.0001) // SYMBOLS (CMIN->CMAX): -abcdefghijklmnopqrstuvwxyz+
(PID.TID 0000.0001) //                  0.0: .
(PID.TID 0000.0001) // RANGE I (Lo:Hi:Step):(    -1:   250:     1)
(PID.TID 0000.0001) // RANGE J (Lo:Hi:Step):(   250:    -1:    -1)
(PID.TID 0000.0001) // RANGE K (Lo:Hi:Step):(   1:   1:   1)
(PID.TID 0000.0001) // =======================================================
(PID.TID 0000.0001) K =   1
(PID.TID 0000.0001) //                I=8       I=18      I=28      I=38      I=48      I=58      I=68      I=78      I=88      I=98      I=108     I=118     I=128     I=138     I=148     I=158     I=168     I=178     I=188     I=198     I=208     I=218     I=228     I=238     I=248
(PID.TID 0000.0001) // |--J--|101234567|901234567|901234567|901234567|901234567|901234567|901234567|901234567|901234567|901234567|901234567|901234567|901234567|901234567|901234567|901234567|901234567|901234567|901234567|901234567|901234567|901234567|901234567|901234567|901234567|90
(PID.TID 0000.0001) //    250 +..++++++++++++++++++++++++++++++++++++++++++++++++++++++++++++++++++++++++++++++++++++++++++++++++++++++++++++++++++zzzzzzzzzzzzzzzzzz++++++++++++++++++++++++++++++++++++++++++++++++++++++++++++++++++++++++++++++++++++++++++++++++++++++++++++++++++..+
(PID.TID 0000.0001) //    249 ............................................................................................................................................................................................................................................................
(PID.TID 0000.0001) //    248 ............................................................................................................................................................................................................................................................
(PID.TID 0000.0001) //    247 +..++++++++++++++++++++++++++++++++++++++++++++++++++++++++++++++++++++++++++++++++++++++++++++++++++++++++++++++++++zzzzzzzzzzzzzzzzzz++++++++++++++++++++++++++++++++++++++++++++++++++++++++++++++++++++++++++++++++++++++++++++++++++++++++++++++++++..+
(PID.TID 0000.0001) //    246 +..+++++++++++++++++++++++++++++++++++++++++++++++++zzzzzzzzzzzzzzzzzzzzzzzzzzzzzzzzzzzzzzzzzzzzzzzzzzzzzzzzzzzzzzzzzzzzzzzzzzzzzzzzzzzzzzzzzzzzzzzzzzzzzzzzzzzzzzzzzzzzzzzzzzzzzzzzzzzzzzzzzzzzzzzzzzzz+++++++++++++++++++++++++++++++++++++++++++++++++..+
(PID.TID 0000.0001) //    245 +..++++++++++++++++++++++++++++++++++zzzzzzzzzzzzzzzzzzzzzzzzzzzzzzzzzzzzzzzzzzzzzzzzzzzzzzzzzzzzzzzzzzzzzzzzzzzzzzzzzzzzzzzzzzzzzzzzzzzzzzzzzzzzzzzzzzzzzzzzzzzzzzzzzzzzzzzzzzzzzzzzzzzzzzzzzzzzzzzzzzzzzzzzzzzzzzzzzz++++++++++++++++++++++++++++++++++..+
(PID.TID 0000.0001) //    244 +..++++++++++++++++++++++++++zzzzzzzzzzzzzzzzzzzzzzzzzzzzzzzzzzzzzzzzzzzzzzzzzzzzzzzzzzzzzzzzzzzzzzzzzzzzzzzzzzyyyyyyyyyyyyyyyyyyyyyyyyyyyyyyzzzzzzzzzzzzzzzzzzzzzzzzzzzzzzzzzzzzzzzzzzzzzzzzzzzzzzzzzzzzzzzzzzzzzzzzzzzzzzzzzz++++++++++++++++++++++++++..+
(PID.TID 0000.0001) //    243 +..+++++++++++++++++++++zzzzzzzzzzzzzzzzzzzzzzzzzzzzzzzzzzzzzzzzzzzzzzzzzzzzyyyyyyyyyyyyyyyyyyyyyyyyyyyyyyyyyyyyyyyyyyyyyyyyyyyyyyyyyyyyyyyyyyyyyyyyyyyyyyyyyyyyyyyyyyyyyyyyyyyyzzzzzzzzzzzzzzzzzzzzzzzzzzzzzzzzzzzzzzzzzzzzzzzzzzzz+++++++++++++++++++++..+
(PID.TID 0000.0001) //    242 +..+++++++++++++++++zzzzzzzzzzzzzzzzzzzzzzzzzzzzzzzzzzzzzzzzzyyyyyyyyyyyyyyyyyyyyyyyyyyyyyyyyyyyyyyyyyyyyyyyyyyyyyyyyyyyyyyyyyyyyyyyyyyyyyyyyyyyyyyyyyyyyyyyyyyyyyyyyyyyyyyyyyyyyyyyyyyyyyyyyyyzzzzzzzzzzzzzzzzzzzzzzzzzzzzzzzzzzzzzzzzz+++++++++++++++++..+
(PID.TID 0000.0001) //    241 +..+++++++++++++++zzzzzzzzzzzzzzzzzzzzzzzzzzzzzzzzzzyyyyyyyyyyyyyyyyyyyyyyyyyyyyyyyyyyyyyyyyyyyyyyyyyyyyyyyyyyxxxxxxxxxxxxxxxxxxxxxxxxxxxxxxxxyyyyyyyyyyyyyyyyyyyyyyyyyyyyyyyyyyyyyyyyyyyyyyyyyyyyyyyyyyzzzzzzzzzzzzzzzzzzzzzzzzzzzzzzzzzz+++++++++++++++..+
(PID.TID 0000.0001) //    240 +..+++++++++++++zzzzzzzzzzzzzzzzzzzzzzzzzzzzzyyyyyyyyyyyyyyyyyyyyyyyyyyyyyyyyyyyyyyyxxxxxxxxxxxxxxxxxxxxxxxxxxxxxxxxxxxxxxxxxxxxxxxxxxxxxxxxxxxxxxxxxxxxxxxxxxxxxxxxxxxxyyyyyyyyyyyyyyyyyyyyyyyyyyyyyyyyyyyyyyyzzzzzzzzzzzzzzzzzzzzzzzzzzzzz+++++++++++++..+
(PID.TID 0000.0001) //    239 +..+++++++++++zzzzzzzzzzzzzzzzzzzzzzzzzzyyyyyyyyyyyyyyyyyyyyyyyyyyyyyyyyxxxxxxxxxxxxxxxxxxxxxxxxxxxxxxxxxxxxxxxxxxxxxxxxxxxxxxxxxxxxxxxxxxxxxxxxxxxxxxxxxxxxxxxxxxxxxxxxxxxxxxxxxxxxyyyyyyyyyyyyyyyyyyyyyyyyyyyyyyyyzzzzzzzzzzzzzzzzzzzzzzzzzz+++++++++++..+
(PID.TID 0000.0001) //    238 +..++++++++++zzzzzzzzzzzzzzzzzzzzzzzyyyyyyyyyyyyyyyyyyyyyyyyyyyxxxxxxxxxxxxxxxxxxxxxxxxxxxxxxxxxxxxxxxxxxxxxxxwwwwwwwwwwwwwwwwwwwwwwwwwwwwwwwwxxxxxxxxxxxxxxxxxxxxxxxxxxxxxxxxxxxxxxxxxxxxxxxyyyyyyyyyyyyyyyyyyyyyyyyyyyzzzzzzzzzzzzzzzzzzzzzzz++++++++++..+
(PID.TID 0000.0001) //    237 +..+++++++++zzzzzzzzzzzzzzzzzzzzzyyyyyyyyyyyyyyyyyyyyyyyyxxxxxxxxxxxxxxxxxxxxxxxxxxxxxxxxxwwwwwwwwwwwwwwwwwwwwwwwwwwwwwwwwwwwwwwwwwwwwwwwwwwwwwwwwwwwwwwwwwwwwwwwwxxxxxxxxxxxxxxxxxxxxxxxxxxxxxxxxxyyyyyyyyyyyyyyyyyyyyyyyyzzzzzzzzzzzzzzzzzzzzz+++++++++..+
(PID.TID 0000.0001) //    236 +..++++++++zzzzzzzzzzzzzzzzzzzzyyyyyyyyyyyyyyyyyyyyyxxxxxxxxxxxxxxxxxxxxxxxxxxwwwwwwwwwwwwwwwwwwwwwwwwwwwwwwwwwwwwwwwwwwwwwwwwwwwwwwwwwwwwwwwwwwwwwwwwwwwwwwwwwwwwwwwwwwwwwwwwxxxxxxxxxxxxxxxxxxxxxxxxxxyyyyyyyyyyyyyyyyyyyyyzzzzzzzzzzzzzzzzzzzz++++++++..+
(PID.TID 0000.0001) //    235 +..++++++++zzzzzzzzzzzzzzzzzyyyyyyyyyyyyyyyyyyyyxxxxxxxxxxxxxxxxxxxxxxxwwwwwwwwwwwwwwwwwwwwwwwwwwwwwwwwwwwwwwwwvvvvvvvvvvvvvvvvvvvvvvvvvvvvvvwwwwwwwwwwwwwwwwwwwwwwwwwwwwwwwwwwwwwwwwxxxxxxxxxxxxxxxxxxxxxxxyyyyyyyyyyyyyyyyyyyyzzzzzzzzzzzzzzzzz++++++++..+
(PID.TID 0000.0001) //    234 +..+++++++zzzzzzzzzzzzzzzzzyyyyyyyyyyyyyyyyyxxxxxxxxxxxxxxxxxxxxwwwwwwwwwwwwwwwwwwwwwwwwwwwwwvvvvvvvvvvvvvvvvvvvvvvvvvvvvvvvvvvvvvvvvvvvvvvvvvvvvvvvvvvvvvvvvvvwwwwwwwwwwwwwwwwwwwwwwwwwwwwwxxxxxxxxxxxxxxxxxxxxyyyyyyyyyyyyyyyyyzzzzzzzzzzzzzzzzz+++++++..+
(PID.TID 0000.0001) //    233 +..+++++++zzzzzzzzzzzzzzzyyyyyyyyyyyyyyyyxxxxxxxxxxxxxxxxxxxwwwwwwwwwwwwwwwwwwwwwwwvvvvvvvvvvvvvvvvvvvvvvvvvvvvvvvvvvvvvvvvvvvvvvvvvvvvvvvvvvvvvvvvvvvvvvvvvvvvvvvvvvvvvvwwwwwwwwwwwwwwwwwwwwwwwxxxxxxxxxxxxxxxxxxxyyyyyyyyyyyyyyyyzzzzzzzzzzzzzzz+++++++..+
(PID.TID 0000.0001) //    232 +..++++++zzzzzzzzzzzzzzzyyyyyyyyyyyyyyyxxxxxxxxxxxxxxxxwwwwwwwwwwwwwwwwwwwwwvvvvvvvvvvvvvvvvvvvvvvvvvvvvvvvvvvvuuuuuuuuuuuuuuuuuuuuuuuuuuuuuuvvvvvvvvvvvvvvvvvvvvvvvvvvvvvvvvvvvwwwwwwwwwwwwwwwwwwwwwxxxxxxxxxxxxxxxxyyyyyyyyyyyyyyyzzzzzzzzzzzzzzz++++++..+
(PID.TID 0000.0001) //    231 +..++++++zzzzzzzzzzzzzyyyyyyyyyyyyyyxxxxxxxxxxxxxxxxwwwwwwwwwwwwwwwwwwvvvvvvvvvvvvvvvvvvvvvvvvvvuuuuuuuuuuuuuuuuuuuuuuuuuuuuuuuuuuuuuuuuuuuuuuuuuuuuuuuuuuuuvvvvvvvvvvvvvvvvvvvvvvvvvvwwwwwwwwwwwwwwwwwwxxxxxxxxxxxxxxxxyyyyyyyyyyyyyyzzzzzzzzzzzzz++++++..+
(PID.TID 0000.0001) //    230 +..+++++zzzzzzzzzzzzzyyyyyyyyyyyyyxxxxxxxxxxxxxxxwwwwwwwwwwwwwwwwvvvvvvvvvvvvvvvvvvvvvvuuuuuuuuuuuuuuuuuuuuuuuuuuuuuuuuuuuuuuuuuuuuuuuuuuuuuuuuuuuuuuuuuuuuuuuuuuuuuuvvvvvvvvvvvvvvvvvvvvvvwwwwwwwwwwwwwwwwxxxxxxxxxxxxxxxyyyyyyyyyyyyyzzzzzzzzzzzzz+++++..+
(PID.TID 0000.0001) //    229 +..+++++zzzzzzzzzzzzyyyyyyyyyyyyyxxxxxxxxxxxxxwwwwwwwwwwwwwwwvvvvvvvvvvvvvvvvvvvuuuuuuuuuuuuuuuuuuuuuuuuuuuuuuuuuttttttttttttttttttttttttttuuuuuuuuuuuuuuuuuuuuuuuuuuuuuuuuuvvvvvvvvvvvvvvvvvvvwwwwwwwwwwwwwwwxxxxxxxxxxxxxyyyyyyyyyyyyyzzzzzzzzzzzz+++++..+
(PID.TID 0000.0001) //    228 +..+++++zzzzzzzzzzzyyyyyyyyyyyyxxxxxxxxxxxxxwwwwwwwwwwwwwwvvvvvvvvvvvvvvvvuuuuuuuuuuuuuuuuuuuuuuuuttttttttttttttttttttttttttttttttttttttttttttttttttttttttuuuuuuuuuuuuuuuuuuuuuuuuvvvvvvvvvvvvvvvvwwwwwwwwwwwwwwxxxxxxxxxxxxxyyyyyyyyyyyyzzzzzzzzzzz+++++..+
(PID.TID 0000.0001) //    227 +..+++++zzzzzzzzzzzyyyyyyyyyyyxxxxxxxxxxxxwwwwwwwwwwwwwvvvvvvvvvvvvvvvuuuuuuuuuuuuuuuuuuuuttttttttttttttttttttttttttttttttttttttttttttttttttttttttttttttttttttttttuuuuuuuuuuuuuuuuuuuuvvvvvvvvvvvvvvvwwwwwwwwwwwwwxxxxxxxxxxxxyyyyyyyyyyyzzzzzzzzzzz+++++..+
(PID.TID 0000.0001) //    226 +..++++zzzzzzzzzzzyyyyyyyyyyyxxxxxxxxxxxwwwwwwwwwwwwvvvvvvvvvvvvvvuuuuuuuuuuuuuuuuutttttttttttttttttttttttttttttttsssssssssssssssssssssssstttttttttttttttttttttttttttttttuuuuuuuuuuuuuuuuuvvvvvvvvvvvvvvwwwwwwwwwwwwxxxxxxxxxxxyyyyyyyyyyyzzzzzzzzzzz++++..+
(PID.TID 0000.0001) //    225 +..++++zzzzzzzzzzyyyyyyyyyyxxxxxxxxxxxwwwwwwwwwwwwvvvvvvvvvvvvvuuuuuuuuuuuuuuuttttttttttttttttttttttssssssssssssssssssssssssssssssssssssssssssssssssssssttttttttttttttttttttttuuuuuuuuuuuuuuuvvvvvvvvvvvvvwwwwwwwwwwwwxxxxxxxxxxxyyyyyyyyyyzzzzzzzzzz++++..+
(PID.TID 0000.0001) //    224 +..++++zzzzzzzzzzyyyyyyyyyxxxxxxxxxxxwwwwwwwwwwwvvvvvvvvvvvvuuuuuuuuuuuuuuttttttttttttttttttssssssssssssssssssssssssssssssssssssssssssssssssssssssssssssssssssssttttttttttttttttttuuuuuuuuuuuuuuvvvvvvvvvvvvwwwwwwwwwwwxxxxxxxxxxxyyyyyyyyyzzzzzzzzzz++++..+
(PID.TID 0000.0001) //    223 +..++++zzzzzzzzzyyyyyyyyyxxxxxxxxxxwwwwwwwwwwwvvvvvvvvvvvuuuuuuuuuuuuuttttttttttttttttssssssssssssssssssssssssssssssrrrrrrrrrrrrrrrrrrrrssssssssssssssssssssssssssssssttttttttttttttttuuuuuuuuuuuuuvvvvvvvvvvvwwwwwwwwwwwxxxxxxxxxxyyyyyyyyyzzzzzzzzz++++..+
(PID.TID 0000.0001) //    222 +..++++zzzzzzzzyyyyyyyyyyxxxxxxxxxwwwwwwwwwwvvvvvvvvvvvuuuuuuuuuuuuttttttttttttttssssssssssssssssssssssrrrrrrrrrrrrrrrrrrrrrrrrrrrrrrrrrrrrrrrrrrrrrrssssssssssssssssssssssttttttttttttttuuuuuuuuuuuuvvvvvvvvvvvwwwwwwwwwwxxxxxxxxxyyyyyyyyyyzzzzzzzz++++..+
(PID.TID 0000.0001) //    221 +..+++zzzzzzzzzyyyyyyyyyxxxxxxxxxwwwwwwwwwvvvvvvvvvvvuuuuuuuuuuutttttttttttttssssssssssssssssssrrrrrrrrrrrrrrrrrrrrrrrrrrrrrrrrrrrrrrrrrrrrrrrrrrrrrrrrrrrrrrsssssssssssssssssstttttttttttttuuuuuuuuuuuvvvvvvvvvvvwwwwwwwwwxxxxxxxxxyyyyyyyyyzzzzzzzzz+++..+
(PID.TID 0000.0001) //    220 +..+++zzzzzzzzzyyyyyyyyxxxxxxxxxwwwwwwwwwvvvvvvvvvvuuuuuuuuuutttttttttttttsssssssssssssssrrrrrrrrrrrrrrrrrrrrrrrrrrrrrrrqqqqqqqqqqqqrrrrrrrrrrrrrrrrrrrrrrrrrrrrrrrssssssssssssssstttttttttttttuuuuuuuuuuvvvvvvvvvvwwwwwwwwwxxxxxxxxxyyyyyyyyzzzzzzzzz+++..+
(PID.TID 0000.0001) //    219 +..+++zzzzzzzzyyyyyyyyxxxxxxxxxwwwwwwwwvvvvvvvvvvuuuuuuuuuutttttttttttssssssssssssssrrrrrrrrrrrrrrrrrrrrrqqqqqqqqqqqqqqqqqqqqqqqqqqqqqqqqqqqqqqqqqqrrrrrrrrrrrrrrrrrrrrrsssssssssssssstttttttttttuuuuuuuuuuvvvvvvvvvvwwwwwwwwxxxxxxxxxyyyyyyyyzzzzzzzz+++..+
(PID.TID 0000.0001) //    218 +..+++zzzzzzzzyyyyyyyyxxxxxxxxwwwwwwwwvvvvvvvvvuuuuuuuuuutttttttttttssssssssssssrrrrrrrrrrrrrrrrrqqqqqqqqqqqqqqqqqqqqqqqqqqqqqqqqqqqqqqqqqqqqqqqqqqqqqqqqqqrrrrrrrrrrrrrrrrrsssssssssssstttttttttttuuuuuuuuuuvvvvvvvvvwwwwwwwwxxxxxxxxyyyyyyyyzzzzzzzz+++..+
(PID.TID 0000.0001) //    217 +..+++zzzzzzzyyyyyyyyxxxxxxxxwwwwwwwwvvvvvvvvvuuuuuuuuuttttttttttssssssssssssrrrrrrrrrrrrrrrqqqqqqqqqqqqqqqqqqqqqqqqqqqqqqqqqqqqqqqqqqqqqqqqqqqqqqqqqqqqqqqqqqqqrrrrrrrrrrrrrrrssssssssssssttttttttttuuuuuuuuuvvvvvvvvvwwwwwwwwxxxxxxxxyyyyyyyyzzzzzzz+++..+
(PID.TID 0000.0001) //    216 +..+++zzzzzzzyyyyyyyxxxxxxxxwwwwwwwwvvvvvvvvuuuuuuuuuttttttttttsssssssssssrrrrrrrrrrrrrqqqqqqqqqqqqqqqqqqqqppppppppppppppppppppppppppppppppppppppqqqqqqqqqqqqqqqqqqqqrrrrrrrrrrrrrsssssssssssttttttttttuuuuuuuuuvvvvvvvvwwwwwwwwxxxxxxxxyyyyyyyzzzzzzz+++..+
(PID.TID 0000.0001) //    215 +..+++zzzzzzzyyyyyyyxxxxxxxwwwwwwwwvvvvvvvvuuuuuuuuttttttttttssssssssssrrrrrrrrrrrrqqqqqqqqqqqqqqqqqppppppppppppppppppppppppppppppppppppppppppppppppppppqqqqqqqqqqqqqqqqqrrrrrrrrrrrrssssssssssttttttttttuuuuuuuuvvvvvvvvwwwwwwwwxxxxxxxyyyyyyyzzzzzzz+++..+
(PID.TID 0000.0001) //    214 +..+++zzzzzzyyyyyyyxxxxxxxxwwwwwwwvvvvvvvvuuuuuuuutttttttttsssssssssrrrrrrrrrrrrqqqqqqqqqqqqqqppppppppppppppppppppppppppppppppppppppppppppppppppppppppppppppppqqqqqqqqqqqqqqrrrrrrrrrrrrssssssssstttttttttuuuuuuuuvvvvvvvvwwwwwwwxxxxxxxxyyyyyyyzzzzzz+++..+
(PID.TID 0000.0001) //    213 +..++zzzzzzzyyyyyyyxxxxxxxwwwwwwwvvvvvvvvuuuuuuutttttttttsssssssssrrrrrrrrrrrqqqqqqqqqqqqqppppppppppppppppppppooooooooooooooooooooooooooooooooppppppppppppppppppppqqqqqqqqqqqqqrrrrrrrrrrrssssssssstttttttttuuuuuuuvvvvvvvvwwwwwwwxxxxxxxyyyyyyyzzzzzzz++..+
(PID.TID 0000.0001) //    212 +..++zzzzzzzyyyyyyyxxxxxxwwwwwwwvvvvvvvuuuuuuuuttttttttsssssssssrrrrrrrrrrqqqqqqqqqqqqppppppppppppppppooooooooooooooooooooooooooooooooooooooooooooooooppppppppppppppppqqqqqqqqqqqqrrrrrrrrrrsssssssssttttttttuuuuuuuuvvvvvvvwwwwwwwxxxxxxyyyyyyyzzzzzzz++..+
(PID.TID 0000.0001) //    211 +..++zzzzzzzyyyyyyxxxxxxxwwwwwwvvvvvvvuuuuuuuuttttttttssssssssrrrrrrrrrqqqqqqqqqqqpppppppppppppppoooooooooooooooooooooooooooooooooooooooooooooooooooooooooopppppppppppppppqqqqqqqqqqqrrrrrrrrrssssssssttttttttuuuuuuuuvvvvvvvwwwwwwxxxxxxxyyyyyyzzzzzzz++..+
(PID.TID 0000.0001) //    210 +..++zzzzzzyyyyyyyxxxxxxwwwwwwwvvvvvvvuuuuuuutttttttssssssssrrrrrrrrrqqqqqqqqqqpppppppppppppoooooooooooooooooooooonnnnnnnnnnnnnnnnnnnnnnnnoooooooooooooooooooooopppppppppppppqqqqqqqqqqrrrrrrrrrsssssssstttttttuuuuuuuvvvvvvvwwwwwwwxxxxxxyyyyyyyzzzzzz++..+
(PID.TID 0000.0001) //    209 +..++zzzzzzyyyyyyxxxxxxxwwwwwwvvvvvvvuuuuuuutttttttssssssssrrrrrrrrqqqqqqqqqqpppppppppppooooooooooooooooonnnnnnnnnnnnnnnnnnnnnnnnnnnnnnnnnnnnnnnnnnooooooooooooooooopppppppppppqqqqqqqqqqrrrrrrrrsssssssstttttttuuuuuuuvvvvvvvwwwwwwxxxxxxxyyyyyyzzzzzz++..+
(PID.TID 0000.0001) //    208 +..++zzzzzzyyyyyyxxxxxxwwwwwwvvvvvvvuuuuuuutttttttsssssssrrrrrrrrqqqqqqqqqpppppppppppoooooooooooooonnnnnnnnnnnnnnnnnnnnnnnnnnnnnnnnnnnnnnnnnnnnnnnnnnnnnnoooooooooooooopppppppppppqqqqqqqqqrrrrrrrrssssssstttttttuuuuuuuvvvvvvvwwwwwwxxxxxxyyyyyyzzzzzz++..+
(PID.TID 0000.0001) //    207 +..++zzzzzzyyyyyyxxxxxxwwwwwwvvvvvvuuuuuuuttttttssssssssrrrrrrrqqqqqqqqqppppppppppooooooooooooonnnnnnnnnnnnnnnnnnnnnnnnnmmmmmmmmmmmmnnnnnnnnnnnnnnnnnnnnnnnnnoooooooooooooppppppppppqqqqqqqqqrrrrrrrssssssssttttttuuuuuuuvvvvvvwwwwwwxxxxxxyyyyyyzzzzzz++..+
(PID.TID 0000.0001) //    206 +..++zzzzzzyyyyyxxxxxxwwwwwwvvvvvvuuuuuuuttttttsssssssrrrrrrrrqqqqqqqqpppppppppoooooooooooonnnnnnnnnnnnnnnnnmmmmmmmmmmmmmmmmmmmmmmmmmmmmmmmmmmmmnnnnnnnnnnnnnnnnnoooooooooooopppppppppqqqqqqqqrrrrrrrrsssssssttttttuuuuuuuvvvvvvwwwwwwxxxxxxyyyyyzzzzzz++..+
(PID.TID 0000.0001) //    205 +..++zzzzzyyyyyyxxxxxxwwwwwwvvvvvvuuuuuuttttttsssssssrrrrrrrqqqqqqqqpppppppppooooooooooonnnnnnnnnnnnnnmmmmmmmmmmmmmmmmmmmmmmmmmmmmmmmmmmmmmmmmmmmmmmmmnnnnnnnnnnnnnnooooooooooopppppppppqqqqqqqqrrrrrrrsssssssttttttuuuuuuvvvvvvwwwwwwxxxxxxyyyyyyzzzzz++..+
(PID.TID 0000.0001) //    204 +..++zzzzzyyyyyyxxxxxwwwwwwvvvvvvuuuuuuttttttsssssssrrrrrrrqqqqqqqpppppppppoooooooooonnnnnnnnnnnnnmmmmmmmmmmmmmmmmmmmmmmmmmmmmmmmmmmmmmmmmmmmmmmmmmmmmmmmmnnnnnnnnnnnnnoooooooooopppppppppqqqqqqqrrrrrrrsssssssttttttuuuuuuvvvvvvwwwwwwxxxxxyyyyyyzzzzz++..+
(PID.TID 0000.0001) //    203 +..++zzzzzyyyyyyxxxxxwwwwwwvvvvvuuuuuuttttttsssssssrrrrrrqqqqqqqqppppppppooooooooonnnnnnnnnnnnmmmmmmmmmmmmmmmmmmmllllllllllllllllllllllllllmmmmmmmmmmmmmmmmmmmnnnnnnnnnnnnoooooooooppppppppqqqqqqqqrrrrrrsssssssttttttuuuuuuvvvvvwwwwwwxxxxxyyyyyyzzzzz++..+
(PID.TID 0000.0001) //    202 +..++zzzzzyyyyyxxxxxxwwwwwvvvvvvuuuuuttttttsssssssrrrrrrqqqqqqqppppppppooooooooonnnnnnnnnnmmmmmmmmmmmmmmmmllllllllllllllllllllllllllllllllllllllllmmmmmmmmmmmmmmmmnnnnnnnnnnoooooooooppppppppqqqqqqqrrrrrrsssssssttttttuuuuuvvvvvvwwwwwxxxxxxyyyyyzzzzz++..+
(PID.TID 0000.0001) //    201 +..++zzzzzyyyyyxxxxxwwwwwwvvvvvuuuuuuttttttssssssrrrrrrqqqqqqqpppppppooooooooonnnnnnnnnnmmmmmmmmmmmmmllllllllllllllllllllllllllllllllllllllllllllllllllmmmmmmmmmmmmmnnnnnnnnnnooooooooopppppppqqqqqqqrrrrrrssssssttttttuuuuuuvvvvvwwwwwwxxxxxyyyyyzzzzz++..+
(PID.TID 0000.0001) //    200 +..++zzzzzyyyyyxxxxxwwwwwvvvvvvuuuuuttttttssssssrrrrrrqqqqqqppppppppoooooooonnnnnnnnnmmmmmmmmmmmmllllllllllllllllllllllkkkkkkkkkkkkkkllllllllllllllllllllllmmmmmmmmmmmmnnnnnnnnnooooooooppppppppqqqqqqrrrrrrssssssttttttuuuuuvvvvvvwwwwwxxxxxyyyyyzzzzz++..+
(PID.TID 0000.0001) //    199 +..++zzzzzyyyyyxxxxxwwwwwvvvvvuuuuuttttttssssssrrrrrrqqqqqqpppppppoooooooonnnnnnnnnmmmmmmmmmmlllllllllllllllllkkkkkkkkkkkkkkkkkkkkkkkkkkkkkkkklllllllllllllllllmmmmmmmmmmnnnnnnnnnoooooooopppppppqqqqqqrrrrrrssssssttttttuuuuuvvvvvwwwwwxxxxxyyyyyzzzzz++..+
(PID.TID 0000.0001) //    198 +..+zzzzzyyyyyxxxxxwwwwwvvvvvvuuuuutttttssssssrrrrrrqqqqqqpppppppooooooonnnnnnnnmmmmmmmmmmllllllllllllllkkkkkkkkkkkkkkkkkkkkkkkkkkkkkkkkkkkkkkkkkkkkllllllllllllllmmmmmmmmmmnnnnnnnnooooooopppppppqqqqqqrrrrrrsssssstttttuuuuuvvvvvvwwwwwxxxxxyyyyyzzzzz+..+
(PID.TID 0000.0001) //    197 +..+zzzzzyyyyyxxxxxwwwwwvvvvvuuuuuttttttsssssrrrrrrqqqqqqppppppoooooooonnnnnnnmmmmmmmmmmllllllllllllkkkkkkkkkkkkkkkkkkkkkkkkkkkkkkkkkkkkkkkkkkkkkkkkkkkkllllllllllllmmmmmmmmmmnnnnnnnooooooooppppppqqqqqqrrrrrrsssssttttttuuuuuvvvvvwwwwwxxxxxyyyyyzzzzz+..+
(PID.TID 0000.0001) //    196 +..+zzzzzyyyyyxxxxxwwwwwvvvvvuuuuutttttsssssrrrrrrqqqqqqppppppooooooonnnnnnnnmmmmmmmmlllllllllllkkkkkkkkkkkkkkkkkkkjjjjjjjjjjjjjjjjjjjjjjkkkkkkkkkkkkkkkkkkklllllllllllmmmmmmmmnnnnnnnnoooooooppppppqqqqqqrrrrrrssssstttttuuuuuvvvvvwwwwwxxxxxyyyyyzzzzz+..+
(PID.TID 0000.0001) //    195 +..+zzzzzyyyyyxxxxwwwwwvvvvvuuuuutttttssssssrrrrrqqqqqqppppppooooooonnnnnnnmmmmmmmmllllllllllkkkkkkkkkkkkkkkjjjjjjjjjjjjjjjjjjjjjjjjjjjjjjjjjjjjkkkkkkkkkkkkkkkllllllllllmmmmmmmmnnnnnnnoooooooppppppqqqqqqrrrrrsssssstttttuuuuuvvvvvwwwwwxxxxyyyyyzzzzz+..+
(PID.TID 0000.0001) //    194 +..+zzzzzyyyyyxxxxwwwwwvvvvvuuuuutttttsssssrrrrrqqqqqqppppppoooooonnnnnnnmmmmmmmmllllllllllkkkkkkkkkkkkkjjjjjjjjjjjjjjjjjjjjjjjjjjjjjjjjjjjjjjjjjjjjkkkkkkkkkkkkkllllllllllmmmmmmmmnnnnnnnooooooppppppqqqqqqrrrrrssssstttttuuuuuvvvvvwwwwwxxxxyyyyyzzzzz+..+
(PID.TID 0000.0001) //    193 +..+zzzzzyyyyxxxxxwwwwwvvvvuuuuutttttsssssrrrrrqqqqqqppppppoooooonnnnnnnmmmmmmmlllllllllkkkkkkkkkkkkjjjjjjjjjjjjjjjjjjjjjjjjjjjjjjjjjjjjjjjjjjjjjjjjjjjjkkkkkkkkkkkklllllllllmmmmmmmnnnnnnnooooooppppppqqqqqqrrrrrssssstttttuuuuuvvvvwwwwwxxxxxyyyyzzzzz+..+
(PID.TID 0000.0001) //    192 +..+zzzzzyyyyxxxxxwwwwvvvvvuuuuutttttsssssrrrrrqqqqqppppppoooooonnnnnnmmmmmmmmllllllllkkkkkkkkkkkjjjjjjjjjjjjjjjjjiiiiiiiiiiiiiiiiiiiiiiiijjjjjjjjjjjjjjjjjkkkkkkkkkkkllllllllmmmmmmmmnnnnnnooooooppppppqqqqqrrrrrssssstttttuuuuuvvvvvwwwwxxxxxyyyyzzzzz+..+
(PID.TID 0000.0001) //    191 +..+zzzzzyyyyxxxxxwwwwvvvvvuuuutttttsssssrrrrrqqqqqppppppoooooonnnnnnmmmmmmmllllllllkkkkkkkkkkjjjjjjjjjjjjjjiiiiiiiiiiiiiiiiiiiiiiiiiiiiiiiiiiiijjjjjjjjjjjjjjkkkkkkkkkkllllllllmmmmmmmnnnnnnooooooppppppqqqqqrrrrrssssstttttuuuuvvvvvwwwwxxxxxyyyyzzzzz+..+
(PID.TID 0000.0001) //    190 +..+zzzzzyyyyxxxxwwwwwvvvvuuuuutttttssssrrrrrqqqqqppppppoooooonnnnnnmmmmmmmlllllllkkkkkkkkkjjjjjjjjjjjjjiiiiiiiiiiiiiiiiiiiiiiiiiiiiiiiiiiiiiiiiiiiijjjjjjjjjjjjjkkkkkkkkklllllllmmmmmmmnnnnnnooooooppppppqqqqqrrrrrsssstttttuuuuuvvvvwwwwwxxxxyyyyzzzzz+..+
(PID.TID 0000.0001) //    189 +..+zzzzyyyyyxxxxwwwwvvvvvuuuutttttsssssrrrrrqqqqqpppppoooooonnnnnnmmmmmmllllllllkkkkkkkkjjjjjjjjjjjiiiiiiiiiiiiiiiiiiiiiiiiiiiiiiiiiiiiiiiiiiiiiiiiiiiijjjjjjjjjjjkkkkkkkkllllllllmmmmmmnnnnnnoooooopppppqqqqqrrrrrssssstttttuuuuvvvvvwwwwxxxxyyyyyzzzz+..+
(PID.TID 0000.0001) //    188 +..+zzzzyyyyyxxxxwwwwvvvvvuuuutttttssssrrrrrqqqqqpppppoooooonnnnnnmmmmmmlllllllkkkkkkkkjjjjjjjjjjiiiiiiiiiiiiiiiiihhhhhhhhhhhhhhhhhhhhhhhhiiiiiiiiiiiiiiiiijjjjjjjjjjkkkkkkkklllllllmmmmmmnnnnnnoooooopppppqqqqqrrrrrsssstttttuuuuvvvvvwwwwxxxxyyyyyzzzz+..+
(PID.TID 0000.0001) //    187 +..+zzzzyyyyxxxxxwwwwvvvvuuuuuttttsssssrrrrqqqqqpppppoooooonnnnnnmmmmmmlllllllkkkkkkkjjjjjjjjjjiiiiiiiiiiiiihhhhhhhhhhhhhhhhhhhhhhhhhhhhhhhhhhhhiiiiiiiiiiiiijjjjjjjjjjkkkkkkklllllllmmmmmmnnnnnnoooooopppppqqqqqrrrrsssssttttuuuuuvvvvwwwwxxxxxyyyyzzzz+..+
(PID.TID 0000.0001) //    186 +..+zzzzyyyyxxxxwwwwwvvvvuuuutttttssssrrrrrqqqqqpppppooooonnnnnnmmmmmmllllllkkkkkkkkjjjjjjjjiiiiiiiiiiiihhhhhhhhhhhhhhhhhhhhhhhhhhhhhhhhhhhhhhhhhhhhiiiiiiiiiiiijjjjjjjjkkkkkkkkllllllmmmmmmnnnnnnooooopppppqqqqqrrrrrsssstttttuuuuvvvvwwwwwxxxxyyyyzzzz+..+
(PID.TID 0000.0001) //    185 +..+zzzzyyyyxxxxwwwwvvvvvuuuuttttsssssrrrrqqqqqpppppooooonnnnnnmmmmmlllllllkkkkkkkjjjjjjjjiiiiiiiiiiihhhhhhhhhhhhhhhhhhhhhhhhhhhhhhhhhhhhhhhhhhhhhhhhhhiiiiiiiiiiijjjjjjjjkkkkkkklllllllmmmmmnnnnnnooooopppppqqqqqrrrrsssssttttuuuuvvvvvwwwwxxxxyyyyzzzz+..+
(PID.TID 0000.0001) //    184 +..+zzzzyyyyxxxxwwwwvvvvuuuuuttttssssrrrrrqqqqpppppooooonnnnnnmmmmmlllllllkkkkkkjjjjjjjjiiiiiiiiiihhhhhhhhhhhhhhhhhgggggggggggggggggggggghhhhhhhhhhhhhhhhhiiiiiiiiiijjjjjjjjkkkkkklllllllmmmmmnnnnnnooooopppppqqqqrrrrrssssttttuuuuuvvvvwwwwxxxxyyyyzzzz+..+
(PID.TID 0000.0001) //    183 +..+zzzzyyyyxxxxwwwwvvvvuuuutttttssssrrrrqqqqqpppppooooonnnnnmmmmmllllllkkkkkkkjjjjjjjjiiiiiiiiihhhhhhhhhhhhhhgggggggggggggggggggggggggggggggghhhhhhhhhhhhhhiiiiiiiiijjjjjjjjkkkkkkkllllllmmmmmnnnnnooooopppppqqqqqrrrrsssstttttuuuuvvvvwwwwxxxxyyyyzzzz+..+
(PID.TID 0000.0001) //    182 +..+zzzzyyyyxxxxwwwwvvvvuuuuttttssssrrrrrqqqqpppppooooonnnnnmmmmmllllllkkkkkkkjjjjjjjiiiiiiiiihhhhhhhhhhhhgggggggggggggggggggggggggggggggggggggggghhhhhhhhhhhhiiiiiiiiijjjjjjjkkkkkkkllllllmmmmmnnnnnooooopppppqqqqrrrrrssssttttuuuuvvvvwwwwxxxxyyyyzzzz+..+
(PID.TID 0000.0001) //    181 +..+zzzzyyyyxxxxwwwwvvvvuuuuttttssssrrrrqqqqqppppooooonnnnnmmmmmmlllllkkkkkkkjjjjjjjiiiiiiiihhhhhhhhhhhgggggggggggggggggggggggggggggggggggggggggggggghhhhhhhhhhhiiiiiiiijjjjjjjkkkkkkklllllmmmmmmnnnnnoooooppppqqqqqrrrrssssttttuuuuvvvvwwwwxxxxyyyyzzzz+..+
(PID.TID 0000.0001) //    180 +..+zzzzyyyyxxxxwwwvvvvuuuuttttsssssrrrrqqqqpppppooooonnnnmmmmmmlllllkkkkkkjjjjjjjiiiiiiiihhhhhhhhhhggggggggggggggggggffffffffffffffffgggggggggggggggggghhhhhhhhhhiiiiiiiijjjjjjjkkkkkklllllmmmmmmnnnnooooopppppqqqqrrrrsssssttttuuuuvvvvwwwxxxxyyyyzzzz+..+
(PID.TID 0000.0001) //    179 +..+zzzzyyyyxxxwwwwvvvvuuuuttttssssrrrrqqqqqppppooooonnnnnmmmmmlllllkkkkkkjjjjjjjiiiiiiihhhhhhhhhhggggggggggggggffffffffffffffffffffffffffffgggggggggggggghhhhhhhhhhiiiiiiijjjjjjjkkkkkklllllmmmmmnnnnnoooooppppqqqqqrrrrssssttttuuuuvvvvwwwwxxxyyyyzzzz+..+
(PID.TID 0000.0001) //    178 +..+zzzzyyyxxxxwwwwvvvvuuuuttttssssrrrrqqqqpppppoooonnnnnmmmmmlllllkkkkkkjjjjjjjiiiiiiihhhhhhhhhggggggggggggffffffffffffffffffffffffffffffffffffgggggggggggghhhhhhhhhiiiiiiijjjjjjjkkkkkklllllmmmmmnnnnnoooopppppqqqqrrrrssssttttuuuuvvvvwwwwxxxxyyyzzzz+..+
(PID.TID 0000.0001) //    177 +..+zzzzyyyxxxxwwwwvvvvuuuuttttssssrrrrqqqqppppooooonnnnmmmmmllllllkkkkkjjjjjjiiiiiiihhhhhhhhhgggggggggggffffffffffffffffffffffffffffffffffffffffffggggggggggghhhhhhhhhiiiiiiijjjjjjkkkkkllllllmmmmmnnnnoooooppppqqqqrrrrssssttttuuuuvvvvwwwwxxxxyyyzzzz+..+
(PID.TID 0000.0001) //    176 +..+zzzzyyyxxxxwwwwvvvuuuuttttssssrrrrqqqqpppppoooonnnnnmmmmmlllllkkkkkjjjjjjiiiiiiihhhhhhhhggggggggggffffffffffffffffffffffffffffffffffffffffffffffffgggggggggghhhhhhhhiiiiiiijjjjjjkkkkklllllmmmmmnnnnnoooopppppqqqqrrrrssssttttuuuuvvvwwwwxxxxyyyzzzz+..+
(PID.TID 0000.0001) //    175 +..+zzzzyyyxxxxwwwwvvvuuuuttttssssrrrrqqqqppppooooonnnnmmmmmlllllkkkkkjjjjjjiiiiiiihhhhhhhggggggggggffffffffffffffffeeeeeeeeeeeeeeeeeeeeffffffffffffffffgggggggggghhhhhhhiiiiiiijjjjjjkkkkklllllmmmmmnnnnoooooppppqqqqrrrrssssttttuuuuvvvwwwwxxxxyyyzzzz+..+
(PID.TID 0000.0001) //    174 +..+zzzyyyyxxxxwwwvvvvuuuuttttssssrrrrqqqqppppoooonnnnnmmmmlllllkkkkkkjjjjjiiiiiiihhhhhhhgggggggggffffffffffffffeeeeeeeeeeeeeeeeeeeeeeeeeeeeffffffffffffffggggggggghhhhhhhiiiiiiijjjjjkkkkkklllllmmmmnnnnnooooppppqqqqrrrrssssttttuuuuvvvvwwwxxxxyyyyzzz+..+
(PID.TID 0000.0001) //    173 +..+zzzyyyyxxxxwwwvvvvuuuutttssssrrrrqqqqppppooooonnnnmmmmmlllllkkkkkjjjjjiiiiiiihhhhhhhggggggggffffffffffffeeeeeeeeeeeeeeeeeeeeeeeeeeeeeeeeeeeeffffffffffffgggggggghhhhhhhiiiiiiijjjjjkkkkklllllmmmmmnnnnoooooppppqqqqrrrrsssstttuuuuvvvvwwwxxxxyyyyzzz+..+
(PID.TID 0000.0001) //    172 +..+zzzyyyyxxxwwwwvvvvuuuttttssssrrrrqqqqppppoooonnnnmmmmmlllllkkkkkjjjjjiiiiiihhhhhhhggggggggfffffffffffeeeeeeeeeeeeeeeeeeeeeeeeeeeeeeeeeeeeeeeeeefffffffffffgggggggghhhhhhhiiiiiijjjjjkkkkklllllmmmmmnnnnooooppppqqqqrrrrssssttttuuuvvvvwwwwxxxyyyyzzz+..+
(PID.TID 0000.0001) //    171 +..+zzzyyyyxxxwwwwvvvvuuuttttssssrrrrqqqppppooooonnnnmmmmlllllkkkkkjjjjjjiiiiihhhhhhhggggggggffffffffffeeeeeeeeeeeeeeeeeeeeeeeeeeeeeeeeeeeeeeeeeeeeeeffffffffffgggggggghhhhhhhiiiiijjjjjjkkkkklllllmmmmnnnnoooooppppqqqrrrrssssttttuuuvvvvwwwwxxxyyyyzzz+..+
(PID.TID 0000.0001) //    170 +..+zzzyyyyxxxwwwwvvvuuuuttttsssrrrrqqqqppppoooonnnnmmmmmlllllkkkkjjjjjjiiiiiihhhhhhgggggggffffffffffeeeeeeeeeeeeeeeeddddddddddddddddddeeeeeeeeeeeeeeeeffffffffffggggggghhhhhhiiiiiijjjjjjkkkklllllmmmmmnnnnooooppppqqqqrrrrsssttttuuuuvvvwwwwxxxyyyyzzz+..+
(PID.TID 0000.0001) //    169 +..+zzzyyyyxxxwwwwvvvuuuutttssssrrrrqqqqppppoooonnnnmmmmlllllkkkkkjjjjjiiiiiihhhhhhgggggggfffffffffeeeeeeeeeeeeeeddddddddddddddddddddddddddeeeeeeeeeeeeeefffffffffggggggghhhhhhiiiiiijjjjjkkkkklllllmmmmnnnnooooppppqqqqrrrrsssstttuuuuvvvwwwwxxxyyyyzzz+..+
(PID.TID 0000.0001) //    168 +..+zzzyyyyxxxwwwwvvvuuuutttssssrrrrqqqppppoooonnnnnmmmmllllkkkkkjjjjjiiiiiihhhhhhgggggggffffffffeeeeeeeeeeeeddddddddddddddddddddddddddddddddddeeeeeeeeeeeeffffffffggggggghhhhhhiiiiiijjjjjkkkkkllllmmmmnnnnnooooppppqqqrrrrsssstttuuuuvvvwwwwxxxyyyyzzz+..+
(PID.TID 0000.0001) //    167 +..+zzzyyyyxxxwwwvvvvuuuttttssssrrrqqqqppppoooonnnnmmmmlllllkkkkkjjjjjiiiiihhhhhhgggggggffffffffeeeeeeeeeeeddddddddddddddddddddddddddddddddddddddeeeeeeeeeeeffffffffggggggghhhhhhiiiiijjjjjkkkkklllllmmmmnnnnooooppppqqqqrrrssssttttuuuvvvvwwwxxxyyyyzzz+..+
(PID.TID 0000.0001) //    166 +..+zzzyyyxxxxwwwvvvvuuuttttsssrrrrqqqqppppoooonnnnmmmmllllkkkkkjjjjjiiiiihhhhhhgggggggfffffffeeeeeeeeeeeddddddddddddddddddddddddddddddddddddddddddeeeeeeeeeeefffffffggggggghhhhhhiiiiijjjjjkkkkkllllmmmmnnnnooooppppqqqqrrrrsssttttuuuvvvvwwwxxxxyyyzzz+..+
(PID.TID 0000.0001) //    165 +..+zzzyyyxxxxwwwvvvvuuuttttsssrrrrqqqqpppoooonnnnmmmmlllllkkkkjjjjjiiiiihhhhhhgggggggfffffffeeeeeeeeeedddddddddddddddddddccccccccdddddddddddddddddddeeeeeeeeeefffffffggggggghhhhhhiiiiijjjjjkkkklllllmmmmnnnnoooopppqqqqrrrrsssttttuuuvvvvwwwxxxxyyyzzz+..+
(PID.TID 0000.0001) //    164 +..+zzzyyyxxxxwwwvvvvuuutttssssrrrrqqqppppoooonnnnmmmmllllkkkkkjjjjjiiiiihhhhhgggggggfffffffeeeeeeeeedddddddddddddddccccccccccccccccccccdddddddddddddddeeeeeeeeefffffffggggggghhhhhiiiiijjjjjkkkkkllllmmmmnnnnooooppppqqqrrrrsssstttuuuvvvvwwwxxxxyyyzzz+..+
(PID.TID 0000.0001) //    163 +..+zzzyyyxxxxwwwvvvuuuutttssssrrrqqqqppppoooonnnnmmmmllllkkkkjjjjjiiiiihhhhhhggggggfffffffeeeeeeeedddddddddddddccccccccccccccccccccccccccccdddddddddddddeeeeeeeefffffffgggggghhhhhhiiiiijjjjjkkkkllllmmmmnnnnooooppppqqqqrrrsssstttuuuuvvvwwwxxxxyyyzzz+..+
(PID.TID 0000.0001) //    162 +..+zzzyyyxxxxwwwvvvuuuutttssssrrrqqqqpppoooonnnnmmmmllllkkkkkjjjjiiiiihhhhhhggggggfffffffeeeeeeeeddddddddddddccccccccccccccccccccccccccccccccddddddddddddeeeeeeeefffffffgggggghhhhhhiiiiijjjjkkkkkllllmmmmnnnnoooopppqqqqrrrsssstttuuuuvvvwwwxxxxyyyzzz+..+
(PID.TID 0000.0001) //    161 +..+zzzyyyxxxxwwwvvvuuuutttsssrrrrqqqqpppoooonnnnmmmmllllkkkkjjjjjiiiiihhhhhggggggfffffffeeeeeeeeddddddddddccccccccccccccccccccccccccccccccccccccddddddddddeeeeeeeefffffffgggggghhhhhiiiiijjjjjkkkkllllmmmmnnnnoooopppqqqqrrrrssstttuuuuvvvwwwxxxxyyyzzz+..+
(PID.TID 0000.0001) //    160 +..+zzzyyyxxxwwwwvvvuuuttttsssrrrrqqqppppoooonnnmmmmlllllkkkkjjjjiiiiihhhhhggggggfffffffeeeeeeedddddddddddccccccccccccccccccccccccccccccccccccccccdddddddddddeeeeeeefffffffgggggghhhhhiiiiijjjjkkkklllllmmmmnnnooooppppqqqrrrrsssttttuuuvvvwwwwxxxyyyzzz+..+
(PID.TID 0000.0001) //    159 +..+zzzyyyxxxwwwwvvvuuuttttsssrrrrqqqppppooonnnnmmmmllllkkkkjjjjjiiiiihhhhhgggggfffffffeeeeeeeddddddddddccccccccccccccccccccccccccccccccccccccccccccddddddddddeeeeeeefffffffggggghhhhhiiiiijjjjjkkkkllllmmmmnnnnoooppppqqqrrrrsssttttuuuvvvwwwwxxxyyyzzz+..+
(PID.TID 0000.0001) //    158 +..+zzzyyyxxxwwwwvvvuuutttssssrrrqqqqpppoooonnnnmmmmllllkkkkjjjjiiiiihhhhhggggggffffffeeeeeeedddddddddcccccccccccccccccbbbbbbbbbbbbbbcccccccccccccccccdddddddddeeeeeeeffffffgggggghhhhhiiiiijjjjkkkkllllmmmmnnnnoooopppqqqqrrrsssstttuuuvvvwwwwxxxyyyzzz+..+
(PID.TID 0000.0001) //    157 +..+zzzyyyxxxwwwvvvvuuutttssssrrrqqqqpppoooonnnnmmmllllkkkkkjjjjiiiiihhhhhgggggffffffeeeeeeedddddddddccccccccccccccbbbbbbbbbbbbbbbbbbbbbbccccccccccccccdddddddddeeeeeeeffffffggggghhhhhiiiiijjjjkkkkkllllmmmnnnnoooopppqqqqrrrsssstttuuuvvvvwwwxxxyyyzzz+..+
(PID.TID 0000.0001) //    156 +..+zzzyyyxxxwwwvvvvuuutttssssrrrqqqppppoooonnnmmmmllllkkkkjjjjjiiiihhhhhgggggffffffeeeeeeedddddddddccccccccccccbbbbbbbbbbbbbbbbbbbbbbbbbbbbccccccccccccdddddddddeeeeeeeffffffggggghhhhhiiiijjjjjkkkkllllmmmmnnnooooppppqqqrrrsssstttuuuvvvvwwwxxxyyyzzz+..+
(PID.TID 0000.0001) //    155 +..+zzzyyyxxxwwwvvvvuuutttsssrrrrqqqppppooonnnnmmmmllllkkkkjjjjiiiiihhhhhgggggffffffeeeeeeddddddddccccccccccccbbbbbbbbbbbbbbbbbbbbbbbbbbbbbbbbccccccccccccddddddddeeeeeeffffffggggghhhhhiiiiijjjjkkkkllllmmmmnnnnoooppppqqqrrrrssstttuuuvvvvwwwxxxyyyzzz+..+
(PID.TID 0000.0001) //    154 +..+zzzyyyxxxwwwvvvuuuutttsssrrrrqqqppppooonnnnmmmmlllkkkkkjjjjiiiihhhhhgggggffffffeeeeeeedddddddcccccccccccbbbbbbbbbbbbbbbbbbbbbbbbbbbbbbbbbbbbcccccccccccdddddddeeeeeeeffffffggggghhhhhiiiijjjjkkkkklllmmmmnnnnoooppppqqqrrrrssstttuuuuvvvwwwxxxyyyzzz+..+
(PID.TID 0000.0001) //    153 +..+zzzyyyxxxwwwvvvuuuutttsssrrrqqqqpppoooonnnnmmmllllkkkkjjjjiiiiihhhhhgggggfffffeeeeeeedddddddcccccccccccbbbbbbbbbbbbbbbbbbbbbbbbbbbbbbbbbbbbbbcccccccccccdddddddeeeeeeefffffggggghhhhhiiiiijjjjkkkkllllmmmnnnnoooopppqqqqrrrssstttuuuuvvvwwwxxxyyyzzz+..+
(PID.TID 0000.0001) //    152 +..+zzzyyyxxxwwwvvvuuuttttsssrrrqqqqpppoooonnnmmmmllllkkkkjjjjiiiihhhhhgggggffffffeeeeeedddddddccccccccccbbbbbbbbbbbbbbbbbbbbbbbbbbbbbbbbbbbbbbbbbbccccccccccdddddddeeeeeeffffffggggghhhhhiiiijjjjkkkkllllmmmmnnnoooopppqqqqrrrsssttttuuuvvvwwwxxxyyyzzz+..+
(PID.TID 0000.0001) //    151 +..+zzzyyyxxxwwwvvvuuuttttsssrrrqqqqpppooonnnnmmmmllllkkkkjjjjiiiihhhhhgggggfffffeeeeeeddddddddcccccccccbbbbbbbbbbbbbbbbbbbbbbbbbbbbbbbbbbbbbbbbbbbbcccccccccddddddddeeeeeefffffggggghhhhhiiiijjjjkkkkllllmmmmnnnnooopppqqqqrrrsssttttuuuvvvwwwxxxyyyzzz+..+
(PID.TID 0000.0001) //    150 +..+zzzyyyxxxwwwvvvuuutttssssrrrqqqppppooonnnnmmmmlllkkkkjjjjiiiiihhhhgggggffffffeeeeeedddddddcccccccccbbbbbbbbbbbbbbbbaaaaaaaaaaaaaabbbbbbbbbbbbbbbbcccccccccdddddddeeeeeeffffffggggghhhhiiiiijjjjkkkklllmmmmnnnnoooppppqqqrrrsssstttuuuvvvwwwxxxyyyzzz+..+
(PID.TID 0000.0001) //    149 +..+zzzyyyxxxwwwvvvuuutttssssrrrqqqppppooonnnnmmmllllkkkkjjjjiiiihhhhhgggggfffffeeeeeedddddddcccccccccbbbbbbbbbbbbbbaaaaaaaaaaaaaaaaaaaabbbbbbbbbbbbbbcccccccccdddddddeeeeeefffffggggghhhhhiiiijjjjkkkkllllmmmnnnnoooppppqqqrrrsssstttuuuvvvwwwxxxyyyzzz+..+
(PID.TID 0000.0001) //    148 +..+zzzyyyxxxwwwvvvuuutttssssrrrqqqpppoooonnnmmmmllllkkkkjjjjiiiihhhhhggggffffffeeeeeeddddddcccccccccbbbbbbbbbbbbbaaaaaaaaaaaaaaaaaaaaaaaabbbbbbbbbbbbbcccccccccddddddeeeeeeffffffgggghhhhhiiiijjjjkkkkllllmmmmnnnoooopppqqqrrrsssstttuuuvvvwwwxxxyyyzzz+..+
(PID.TID 0000.0001) //    147 +..+zzzyyyxxxwwwvvvuuutttsssrrrrqqqpppoooonnnmmmmllllkkkkjjjjiiiihhhhgggggfffffeeeeeedddddddccccccccbbbbbbbbbbbbaaaaaaaaaaaaaaaaaaaaaaaaaaaabbbbbbbbbbbbccccccccdddddddeeeeeefffffggggghhhhiiiijjjjkkkkllllmmmmnnnoooopppqqqrrrrssstttuuuvvvwwwxxxyyyzzz+..+
(PID.TID 0000.0001) //    146 +..+zzzyyyxxxwwwvvvuuutttsssrrrrqqqpppoooonnnmmmmlllkkkkjjjjiiiihhhhhgggggfffffeeeeeeddddddccccccccbbbbbbbbbbbaaaaaaaaaaaaaaaaaaaaaaaaaaaaaaaabbbbbbbbbbbccccccccddddddeeeeeefffffggggghhhhhiiiijjjjkkkklllmmmmnnnoooopppqqqrrrrssstttuuuvvvwwwxxxyyyzzz+..+
(PID.TID 0000.0001) //    145 +..+zzzyyyxxxwwwvvvuuutttsssrrrqqqqpppooonnnnmmmmlllkkkkjjjjiiiihhhhhggggfffffeeeeeedddddddcccccccbbbbbbbbbbbaaaaaaaaaaaaaaaaaaaaaaaaaaaaaaaaaabbbbbbbbbbbcccccccdddddddeeeeeefffffgggghhhhhiiiijjjjkkkklllmmmmnnnnooopppqqqqrrrssstttuuuvvvwwwxxxyyyzzz+..+
(PID.TID 0000.0001) //    144 +..+zzzyyyxxxwwwvvvuuutttsssrrrqqqqpppooonnnnmmmllllkkkkjjjjiiiihhhhgggggfffffeeeeeeddddddccccccccbbbbbbbbbbaaaaaaaaaaaaaaaaaaaaaaaaaaaaaaaaaaaabbbbbbbbbbccccccccddddddeeeeeefffffggggghhhhiiiijjjjkkkkllllmmmnnnnooopppqqqqrrrssstttuuuvvvwwwxxxyyyzzz+..+
(PID.TID 0000.0001) //    143 +..+zzzyyyxxxwwwvvvuuutttsssrrrqqqppppooonnnnmmmllllkkkkjjjjiiiihhhhgggggfffffeeeeeddddddccccccccbbbbbbbbbbaaaaaaaaaaaaaaaaaaaaaaaaaaaaaaaaaaaaaabbbbbbbbbbccccccccddddddeeeeefffffggggghhhhiiiijjjjkkkkllllmmmnnnnoooppppqqqrrrssstttuuuvvvwwwxxxyyyzzz+..+
(PID.TID 0000.0001) //    142 +..+zzzyyyxxxwwwvvvuuutttsssrrrqqqppppooonnnmmmmllllkkkjjjjiiiihhhhhggggfffffeeeeeeddddddcccccccbbbbbbbbbbaaaaaaaaaaaaaaaaaaaaaaaaaaaaaaaaaaaaaaaabbbbbbbbbbcccccccddddddeeeeeefffffgggghhhhhiiiijjjjkkkllllmmmmnnnoooppppqqqrrrssstttuuuvvvwwwxxxyyyzzz+..+
(PID.TID 0000.0001) //    141 +..+zzzyyyxxxwwwvvvuuutttsssrrrqqqppppooonnnmmmmllllkkkjjjjiiiihhhhhggggfffffeeeeedddddddcccccccbbbbbbbbbaaaaaaaaaaaaaaaaaaaaaaaaaaaaaaaaaaaaaaaaaabbbbbbbbbcccccccdddddddeeeeefffffgggghhhhhiiiijjjjkkkllllmmmmnnnoooppppqqqrrrssstttuuuvvvwwwxxxyyyzzz+..+
(PID.TID 0000.0001) //    140 +..+zzzyyxxxwwwwvvvuuutttsssrrrqqqpppoooonnnmmmmlllkkkkjjjjiiiihhhhgggggfffffeeeeeddddddcccccccbbbbbbbbbaaaaaaaaaaaaaaaaaaaaaaaaaaaaaaaaaaaaaaaaaaaabbbbbbbbbcccccccddddddeeeeefffffggggghhhhiiiijjjjkkkklllmmmmnnnoooopppqqqrrrssstttuuuvvvwwwwxxxyyzzz+..+
(PID.TID 0000.0001) //    139 +..+zzyyyxxxwwwvvvuuuutttsssrrrqqqpppoooonnnmmmmlllkkkkjjjjiiiihhhhgggggfffffeeeeeddddddcccccccbbbbbbbbbaaaaaaaaaaaaaaaaa----------aaaaaaaaaaaaaaaaabbbbbbbbbcccccccddddddeeeeefffffggggghhhhiiiijjjjkkkklllmmmmnnnoooopppqqqrrrssstttuuuuvvvwwwxxxyyyzz+..+
(PID.TID 0000.0001) //    138 +..+zzyyyxxxwwwvvvuuuutttsssrrrqqqpppoooonnnmmmmlllkkkkjjjjiiiihhhhggggfffffeeeeeedddddcccccccbbbbbbbbbaaaaaaaaaaaaaaaa--------------aaaaaaaaaaaaaaaabbbbbbbbbcccccccdddddeeeeeefffffgggghhhhiiiijjjjkkkklllmmmmnnnoooopppqqqrrrssstttuuuuvvvwwwxxxyyyzz+..+
(PID.TID 0000.0001) //    137 +..+zzyyyxxxwwwvvvuuuttttsssrrrqqqpppoooonnnmmmllllkkkkjjjjiiiihhhhggggfffffeeeeeddddddcccccccbbbbbbbbbaaaaaaaaaaaaaa------------------aaaaaaaaaaaaaabbbbbbbbbcccccccddddddeeeeefffffgggghhhhiiiijjjjkkkkllllmmmnnnoooopppqqqrrrsssttttuuuvvvwwwxxxyyyzz+..+
(PID.TID 0000.0001) //    136 +..+zzyyyxxxwwwvvvuuutttssssrrrqqqpppooonnnnmmmllllkkkkjjjiiiihhhhhggggfffffeeeeeddddddcccccccbbbbbbbbaaaaaaaaaaaaaa--------------------aaaaaaaaaaaaaabbbbbbbbcccccccddddddeeeeefffffgggghhhhhiiiijjjkkkkllllmmmnnnnooopppqqqrrrsssstttuuuvvvwwwxxxyyyzz+..+
(PID.TID 0000.0001) //    135 +..+zzyyyxxxwwwvvvuuutttssssrrrqqqpppooonnnnmmmllllkkkjjjjiiiihhhhgggggfffffeeeeeddddddccccccbbbbbbbbbaaaaaaaaaaaaa----------------------aaaaaaaaaaaaabbbbbbbbbccccccddddddeeeeefffffggggghhhhiiiijjjjkkkllllmmmnnnnooopppqqqrrrsssstttuuuvvvwwwxxxyyyzz+..+
(PID.TID 0000.0001) //    134 +..+zzyyyxxxwwwvvvuuutttsssrrrrqqqpppooonnnnmmmllllkkkjjjjiiiihhhhgggggffffeeeeeedddddcccccccbbbbbbbbaaaaaaaaaaaaa------------------------aaaaaaaaaaaaabbbbbbbbcccccccdddddeeeeeeffffggggghhhhiiiijjjjkkkllllmmmnnnnooopppqqqrrrrssstttuuuvvvwwwxxxyyyzz+..+
(PID.TID 0000.0001) //    133 z..zzzyyyxxxwwwvvvuuutttsssrrrrqqqpppooonnnnmmmllllkkkjjjjiiiihhhhgggggffffeeeeeddddddcccccccbbbbbbbbaaaaaaaaaaaa--------------------------aaaaaaaaaaaabbbbbbbbcccccccddddddeeeeeffffggggghhhhiiiijjjjkkkllllmmmnnnnooopppqqqrrrrssstttuuuvvvwwwxxxyyyzzz..z
(PID.TID 0000.0001) //    132 z..zzzyyyxxxwwwvvvuuutttsssrrrrqqqpppooonnnnmmmllllkkkjjjjiiiihhhhggggfffffeeeeeddddddcccccccbbbbbbbbaaaaaaaaaaaa--------------------------aaaaaaaaaaaabbbbbbbbcccccccddddddeeeeefffffgggghhhhiiiijjjjkkkllllmmmnnnnooopppqqqrrrrssstttuuuvvvwwwxxxyyyzzz..z
(PID.TID 0000.0001) //    131 z..zzzyyyxxxwwwvvvuuutttsssrrrrqqqpppooonnnnmmmlllkkkkjjjjiiiihhhhggggfffffeeeeeddddddccccccbbbbbbbbaaaaaaaaaaaa----------------------------aaaaaaaaaaaabbbbbbbbccccccddddddeeeeefffffgggghhhhiiiijjjjkkkklllmmmnnnnooopppqqqrrrrssstttuuuvvvwwwxxxyyyzzz..z
(PID.TID 0000.0001) //    130 z..zzzyyyxxxwwwvvvuuutttsssrrrqqqqpppooonnnmmmmlllkkkkjjjjiiiihhhhggggfffffeeeeeddddddccccccbbbbbbbbaaaaaaaaaaaa----------------------------aaaaaaaaaaaabbbbbbbbccccccddddddeeeeefffffgggghhhhiiiijjjjkkkklllmmmmnnnooopppqqqqrrrssstttuuuvvvwwwxxxyyyzzz..z
(PID.TID 0000.0001) //    129 z..zzzyyyxxxwwwvvvuuutttsssrrrqqqqpppooonnnmmmmlllkkkkjjjjiiiihhhhggggfffffeeeeeddddddccccccbbbbbbbbaaaaaaaaaaa------------------------------aaaaaaaaaaabbbbbbbbccccccddddddeeeeefffffgggghhhhiiiijjjjkkkklllmmmmnnnooopppqqqqrrrssstttuuuvvvwwwxxxyyyzzz..z
(PID.TID 0000.0001) //    128 z..zzzyyyxxxwwwvvvuuutttsssrrrqqqqpppooonnnmmmmlllkkkkjjjjiiiihhhhggggfffffeeeeedddddcccccccbbbbbbbbaaaaaaaaaaa------------------------------aaaaaaaaaaabbbbbbbbcccccccdddddeeeeefffffgggghhhhiiiijjjjkkkklllmmmmnnnooopppqqqqrrrssstttuuuvvvwwwxxxyyyzzz..z
(PID.TID 0000.0001) //    127 z..zzzyyyxxxwwwvvvuuutttsssrrrqqqqpppooonnnmmmmlllkkkkjjjjiiiihhhhggggfffffeeeeedddddcccccccbbbbbbbbaaaaaaaaaaa------------------------------aaaaaaaaaaabbbbbbbbcccccccdddddeeeeefffffgggghhhhiiiijjjjkkkklllmmmmnnnooopppqqqqrrrssstttuuuvvvwwwxxxyyyzzz..z
(PID.TID 0000.0001) //    126 z..zzzyyyxxxwwwvvvuuutttsssrrrqqqqpppooonnnmmmmlllkkkkjjjjiiiihhhhggggfffffeeeeedddddcccccccbbbbbbbbaaaaaaaaaaa------------------------------aaaaaaaaaaabbbbbbbbcccccccdddddeeeeefffffgggghhhhiiiijjjjkkkklllmmmmnnnooopppqqqqrrrssstttuuuvvvwwwxxxyyyzzz..z
(PID.TID 0000.0001) //    125 z..zzzyyyxxxwwwvvvuuutttsssrrrqqqqpppooonnnmmmmlllkkkkjjjjiiiihhhhggggfffffeeeeedddddcccccccbbbbbbbbaaaaaaaaaaa------------------------------aaaaaaaaaaabbbbbbbbcccccccdddddeeeeefffffgggghhhhiiiijjjjkkkklllmmmmnnnooopppqqqqrrrssstttuuuvvvwwwxxxyyyzzz..z
(PID.TID 0000.0001) //    124 z..zzzyyyxxxwwwvvvuuutttsssrrrqqqqpppooonnnmmmmlllkkkkjjjjiiiihhhhggggfffffeeeeedddddcccccccbbbbbbbbaaaaaaaaaaa------------------------------aaaaaaaaaaabbbbbbbbcccccccdddddeeeeefffffgggghhhhiiiijjjjkkkklllmmmmnnnooopppqqqqrrrssstttuuuvvvwwwxxxyyyzzz..z
(PID.TID 0000.0001) //    123 z..zzzyyyxxxwwwvvvuuutttsssrrrqqqqpppooonnnmmmmlllkkkkjjjjiiiihhhhggggfffffeeeeedddddcccccccbbbbbbbbaaaaaaaaaaa------------------------------aaaaaaaaaaabbbbbbbbcccccccdddddeeeeefffffgggghhhhiiiijjjjkkkklllmmmmnnnooopppqqqqrrrssstttuuuvvvwwwxxxyyyzzz..z
(PID.TID 0000.0001) //    122 z..zzzyyyxxxwwwvvvuuutttsssrrrqqqqpppooonnnmmmmlllkkkkjjjjiiiihhhhggggfffffeeeeedddddcccccccbbbbbbbbaaaaaaaaaaa------------------------------aaaaaaaaaaabbbbbbbbcccccccdddddeeeeefffffgggghhhhiiiijjjjkkkklllmmmmnnnooopppqqqqrrrssstttuuuvvvwwwxxxyyyzzz..z
(PID.TID 0000.0001) //    121 z..zzzyyyxxxwwwvvvuuutttsssrrrqqqqpppooonnnmmmmlllkkkkjjjjiiiihhhhggggfffffeeeeedddddcccccccbbbbbbbbaaaaaaaaaaa------------------------------aaaaaaaaaaabbbbbbbbcccccccdddddeeeeefffffgggghhhhiiiijjjjkkkklllmmmmnnnooopppqqqqrrrssstttuuuvvvwwwxxxyyyzzz..z
(PID.TID 0000.0001) //    120 z..zzzyyyxxxwwwvvvuuutttsssrrrqqqqpppooonnnmmmmlllkkkkjjjjiiiihhhhggggfffffeeeeeddddddccccccbbbbbbbbaaaaaaaaaaa------------------------------aaaaaaaaaaabbbbbbbbccccccddddddeeeeefffffgggghhhhiiiijjjjkkkklllmmmmnnnooopppqqqqrrrssstttuuuvvvwwwxxxyyyzzz..z
(PID.TID 0000.0001) //    119 z..zzzyyyxxxwwwvvvuuutttsssrrrqqqqpppooonnnmmmmlllkkkkjjjjiiiihhhhggggfffffeeeeeddddddccccccbbbbbbbbaaaaaaaaaaaa----------------------------aaaaaaaaaaaabbbbbbbbccccccddddddeeeeefffffgggghhhhiiiijjjjkkkklllmmmmnnnooopppqqqqrrrssstttuuuvvvwwwxxxyyyzzz..z
(PID.TID 0000.0001) //    118 z..zzzyyyxxxwwwvvvuuutttsssrrrrqqqpppooonnnnmmmlllkkkkjjjjiiiihhhhggggfffffeeeeeddddddccccccbbbbbbbbaaaaaaaaaaaa----------------------------aaaaaaaaaaaabbbbbbbbccccccddddddeeeeefffffgggghhhhiiiijjjjkkkklllmmmnnnnooopppqqqrrrrssstttuuuvvvwwwxxxyyyzzz..z
(PID.TID 0000.0001) //    117 z..zzzyyyxxxwwwvvvuuutttsssrrrrqqqpppooonnnnmmmllllkkkjjjjiiiihhhhggggfffffeeeeeddddddcccccccbbbbbbbbaaaaaaaaaaaa--------------------------aaaaaaaaaaaabbbbbbbbcccccccddddddeeeeefffffgggghhhhiiiijjjjkkkllllmmmnnnnooopppqqqrrrrssstttuuuvvvwwwxxxyyyzzz..z
(PID.TID 0000.0001) //    116 z..zzzyyyxxxwwwvvvuuutttsssrrrrqqqpppooonnnnmmmllllkkkjjjjiiiihhhhgggggffffeeeeeddddddcccccccbbbbbbbbaaaaaaaaaaaa--------------------------aaaaaaaaaaaabbbbbbbbcccccccddddddeeeeeffffggggghhhhiiiijjjjkkkllllmmmnnnnooopppqqqrrrrssstttuuuvvvwwwxxxyyyzzz..z
(PID.TID 0000.0001) //    115 +..+zzyyyxxxwwwvvvuuutttsssrrrrqqqpppooonnnnmmmllllkkkjjjjiiiihhhhgggggffffeeeeeedddddcccccccbbbbbbbbaaaaaaaaaaaaa------------------------aaaaaaaaaaaaabbbbbbbbcccccccdddddeeeeeeffffggggghhhhiiiijjjjkkkllllmmmnnnnooopppqqqrrrrssstttuuuvvvwwwxxxyyyzz+..+
(PID.TID 0000.0001) //    114 +..+zzyyyxxxwwwvvvuuutttssssrrrqqqpppooonnnnmmmllllkkkjjjjiiiihhhhgggggfffffeeeeeddddddccccccbbbbbbbbbaaaaaaaaaaaaa----------------------aaaaaaaaaaaaabbbbbbbbbccccccddddddeeeeefffffggggghhhhiiiijjjjkkkllllmmmnnnnooopppqqqrrrsssstttuuuvvvwwwxxxyyyzz+..+
(PID.TID 0000.0001) //    113 +..+zzyyyxxxwwwvvvuuutttssssrrrqqqpppooonnnnmmmllllkkkkjjjiiiihhhhhggggfffffeeeeeddddddcccccccbbbbbbbbaaaaaaaaaaaaaa--------------------aaaaaaaaaaaaaabbbbbbbbcccccccddddddeeeeefffffgggghhhhhiiiijjjkkkkllllmmmnnnnooopppqqqrrrsssstttuuuvvvwwwxxxyyyzz+..+
(PID.TID 0000.0001) //    112 +..+zzyyyxxxwwwvvvuuuttttsssrrrqqqpppoooonnnmmmllllkkkkjjjjiiiihhhhggggfffffeeeeeddddddcccccccbbbbbbbbbaaaaaaaaaaaaaa------------------aaaaaaaaaaaaaabbbbbbbbbcccccccddddddeeeeefffffgggghhhhiiiijjjjkkkkllllmmmnnnoooopppqqqrrrsssttttuuuvvvwwwxxxyyyzz+..+
(PID.TID 0000.0001) //    111 +..+zzyyyxxxwwwvvvuuuutttsssrrrqqqpppoooonnnmmmmlllkkkkjjjjiiiihhhhggggfffffeeeeeedddddcccccccbbbbbbbbbaaaaaaaaaaaaaaaa--------------aaaaaaaaaaaaaaaabbbbbbbbbcccccccdddddeeeeeefffffgggghhhhiiiijjjjkkkklllmmmmnnnoooopppqqqrrrssstttuuuuvvvwwwxxxyyyzz+..+
(PID.TID 0000.0001) //    110 +..+zzyyyxxxwwwvvvuuuutttsssrrrqqqpppoooonnnmmmmlllkkkkjjjjiiiihhhhgggggfffffeeeeeddddddcccccccbbbbbbbbbaaaaaaaaaaaaaaaaa----------aaaaaaaaaaaaaaaaabbbbbbbbbcccccccddddddeeeeefffffggggghhhhiiiijjjjkkkklllmmmmnnnoooopppqqqrrrssstttuuuuvvvwwwxxxyyyzz+..+
(PID.TID 0000.0001) //    109 +..+zzzyyxxxwwwwvvvuuutttsssrrrqqqpppoooonnnmmmmlllkkkkjjjjiiiihhhhgggggfffffeeeeeddddddcccccccbbbbbbbbbaaaaaaaaaaaaaaaaaaaaaaaaaaaaaaaaaaaaaaaaaaaabbbbbbbbbcccccccddddddeeeeefffffggggghhhhiiiijjjjkkkklllmmmmnnnoooopppqqqrrrssstttuuuvvvwwwwxxxyyzzz+..+
(PID.TID 0000.0001) //    108 +..+zzzyyyxxxwwwvvvuuutttsssrrrqqqppppooonnnmmmmllllkkkjjjjiiiihhhhhggggfffffeeeeedddddddcccccccbbbbbbbbbaaaaaaaaaaaaaaaaaaaaaaaaaaaaaaaaaaaaaaaaaabbbbbbbbbcccccccdddddddeeeeefffffgggghhhhhiiiijjjjkkkllllmmmmnnnoooppppqqqrrrssstttuuuvvvwwwxxxyyyzzz+..+
(PID.TID 0000.0001) //    107 +..+zzzyyyxxxwwwvvvuuutttsssrrrqqqppppooonnnmmmmllllkkkjjjjiiiihhhhhggggfffffeeeeeeddddddcccccccbbbbbbbbbbaaaaaaaaaaaaaaaaaaaaaaaaaaaaaaaaaaaaaaaabbbbbbbbbbcccccccddddddeeeeeefffffgggghhhhhiiiijjjjkkkllllmmmmnnnoooppppqqqrrrssstttuuuvvvwwwxxxyyyzzz+..+
(PID.TID 0000.0001) //    106 +..+zzzyyyxxxwwwvvvuuutttsssrrrqqqppppooonnnnmmmllllkkkkjjjjiiiihhhhgggggfffffeeeeeddddddccccccccbbbbbbbbbbaaaaaaaaaaaaaaaaaaaaaaaaaaaaaaaaaaaaaabbbbbbbbbbccccccccddddddeeeeefffffggggghhhhiiiijjjjkkkkllllmmmnnnnoooppppqqqrrrssstttuuuvvvwwwxxxyyyzzz+..+
(PID.TID 0000.0001) //    105 +..+zzzyyyxxxwwwvvvuuutttsssrrrqqqqpppooonnnnmmmllllkkkkjjjjiiiihhhhgggggfffffeeeeeeddddddccccccccbbbbbbbbbbaaaaaaaaaaaaaaaaaaaaaaaaaaaaaaaaaaaabbbbbbbbbbccccccccddddddeeeeeefffffggggghhhhiiiijjjjkkkkllllmmmnnnnooopppqqqqrrrssstttuuuvvvwwwxxxyyyzzz+..+
(PID.TID 0000.0001) //    104 +..+zzzyyyxxxwwwvvvuuutttsssrrrqqqqpppooonnnnmmmmlllkkkkjjjjiiiihhhhhggggfffffeeeeeedddddddcccccccbbbbbbbbbbbaaaaaaaaaaaaaaaaaaaaaaaaaaaaaaaaaabbbbbbbbbbbcccccccdddddddeeeeeefffffgggghhhhhiiiijjjjkkkklllmmmmnnnnooopppqqqqrrrssstttuuuvvvwwwxxxyyyzzz+..+
(PID.TID 0000.0001) //    103 +..+zzzyyyxxxwwwvvvuuutttsssrrrrqqqpppoooonnnmmmmlllkkkkjjjjiiiihhhhhgggggfffffeeeeeeddddddccccccccbbbbbbbbbbbaaaaaaaaaaaaaaaaaaaaaaaaaaaaaaaabbbbbbbbbbbccccccccddddddeeeeeefffffggggghhhhhiiiijjjjkkkklllmmmmnnnoooopppqqqrrrrssstttuuuvvvwwwxxxyyyzzz+..+
(PID.TID 0000.0001) //    102 +..+zzzyyyxxxwwwvvvuuutttsssrrrrqqqpppoooonnnmmmmllllkkkkjjjjiiiihhhhgggggfffffeeeeeedddddddccccccccbbbbbbbbbbbbaaaaaaaaaaaaaaaaaaaaaaaaaaaabbbbbbbbbbbbccccccccdddddddeeeeeefffffggggghhhhiiiijjjjkkkkllllmmmmnnnoooopppqqqrrrrssstttuuuvvvwwwxxxyyyzzz+..+
(PID.TID 0000.0001) //    101 +..+zzzyyyxxxwwwvvvuuutttssssrrrqqqpppoooonnnmmmmllllkkkkjjjjiiiihhhhhggggffffffeeeeeeddddddcccccccccbbbbbbbbbbbbbaaaaaaaaaaaaaaaaaaaaaaaabbbbbbbbbbbbbcccccccccddddddeeeeeeffffffgggghhhhhiiiijjjjkkkkllllmmmmnnnoooopppqqqrrrsssstttuuuvvvwwwxxxyyyzzz+..+
(PID.TID 0000.0001) //    100 +..+zzzyyyxxxwwwvvvuuutttssssrrrqqqppppooonnnnmmmllllkkkkjjjjiiiihhhhhgggggfffffeeeeeedddddddcccccccccbbbbbbbbbbbbbbaaaaaaaaaaaaaaaaaaaabbbbbbbbbbbbbbcccccccccdddddddeeeeeefffffggggghhhhhiiiijjjjkkkkllllmmmnnnnoooppppqqqrrrsssstttuuuvvvwwwxxxyyyzzz+..+
(PID.TID 0000.0001) //     99 +..+zzzyyyxxxwwwvvvuuutttssssrrrqqqppppooonnnnmmmmlllkkkkjjjjiiiiihhhhgggggffffffeeeeeedddddddcccccccccbbbbbbbbbbbbbbbbaaaaaaaaaaaaaabbbbbbbbbbbbbbbbcccccccccdddddddeeeeeeffffffggggghhhhiiiiijjjjkkkklllmmmmnnnnoooppppqqqrrrsssstttuuuvvvwwwxxxyyyzzz+..+
(PID.TID 0000.0001) //     98 +..+zzzyyyxxxwwwvvvuuuttttsssrrrqqqqpppooonnnnmmmmllllkkkkjjjjiiiihhhhhgggggfffffeeeeeeddddddddcccccccccbbbbbbbbbbbbbbbbbbbbbbbbbbbbbbbbbbbbbbbbbbbbcccccccccddddddddeeeeeefffffggggghhhhhiiiijjjjkkkkllllmmmmnnnnooopppqqqqrrrsssttttuuuvvvwwwxxxyyyzzz+..+
(PID.TID 0000.0001) //     97 +..+zzzyyyxxxwwwvvvuuuttttsssrrrqqqqpppoooonnnmmmmllllkkkkjjjjiiiihhhhhgggggffffffeeeeeedddddddccccccccccbbbbbbbbbbbbbbbbbbbbbbbbbbbbbbbbbbbbbbbbbbccccccccccdddddddeeeeeeffffffggggghhhhhiiiijjjjkkkkllllmmmmnnnoooopppqqqqrrrsssttttuuuvvvwwwxxxyyyzzz+..+
(PID.TID 0000.0001) //     96 +..+zzzyyyxxxwwwvvvuuuutttsssrrrqqqqpppoooonnnnmmmllllkkkkjjjjiiiiihhhhhgggggfffffeeeeeeedddddddcccccccccccbbbbbbbbbbbbbbbbbbbbbbbbbbbbbbbbbbbbbbcccccccccccdddddddeeeeeeefffffggggghhhhhiiiiijjjjkkkkllllmmmnnnnoooopppqqqqrrrssstttuuuuvvvwwwxxxyyyzzz+..+
(PID.TID 0000.0001) //     95 +..+zzzyyyxxxwwwvvvuuuutttsssrrrrqqqppppooonnnnmmmmlllkkkkkjjjjiiiihhhhhgggggffffffeeeeeeedddddddcccccccccccbbbbbbbbbbbbbbbbbbbbbbbbbbbbbbbbbbbbcccccccccccdddddddeeeeeeeffffffggggghhhhhiiiijjjjkkkkklllmmmmnnnnoooppppqqqrrrrssstttuuuuvvvwwwxxxyyyzzz+..+
(PID.TID 0000.0001) //     94 +..+zzzyyyxxxwwwvvvvuuutttsssrrrrqqqppppooonnnnmmmmllllkkkkjjjjiiiiihhhhhgggggffffffeeeeeeddddddddccccccccccccbbbbbbbbbbbbbbbbbbbbbbbbbbbbbbbbccccccccccccddddddddeeeeeeffffffggggghhhhhiiiiijjjjkkkkllllmmmmnnnnoooppppqqqrrrrssstttuuuvvvvwwwxxxyyyzzz+..+
(PID.TID 0000.0001) //     93 +..+zzzyyyxxxwwwvvvvuuutttssssrrrqqqppppoooonnnmmmmllllkkkkjjjjjiiiihhhhhgggggffffffeeeeeeedddddddddccccccccccccbbbbbbbbbbbbbbbbbbbbbbbbbbbbccccccccccccdddddddddeeeeeeeffffffggggghhhhhiiiijjjjjkkkkllllmmmmnnnooooppppqqqrrrsssstttuuuvvvvwwwxxxyyyzzz+..+
(PID.TID 0000.0001) //     92 +..+zzzyyyxxxwwwvvvvuuutttssssrrrqqqqpppoooonnnnmmmllllkkkkkjjjjiiiiihhhhhgggggffffffeeeeeeedddddddddccccccccccccccbbbbbbbbbbbbbbbbbbbbbbccccccccccccccdddddddddeeeeeeeffffffggggghhhhhiiiiijjjjkkkkkllllmmmnnnnoooopppqqqqrrrsssstttuuuvvvvwwwxxxyyyzzz+..+
(PID.TID 0000.0001) //     91 +..+zzzyyyxxxwwwwvvvuuutttssssrrrqqqqpppoooonnnnmmmmllllkkkkjjjjiiiiihhhhhggggggffffffeeeeeeedddddddddcccccccccccccccccbbbbbbbbbbbbbbcccccccccccccccccdddddddddeeeeeeeffffffgggggghhhhhiiiiijjjjkkkkllllmmmmnnnnoooopppqqqqrrrsssstttuuuvvvwwwwxxxyyyzzz+..+
(PID.TID 0000.0001) //     90 +..+zzzyyyxxxwwwwvvvuuuttttsssrrrrqqqppppooonnnnmmmmllllkkkkjjjjjiiiiihhhhhgggggfffffffeeeeeeeddddddddddccccccccccccccccccccccccccccccccccccccccccccddddddddddeeeeeeefffffffggggghhhhhiiiiijjjjjkkkkllllmmmmnnnnoooppppqqqrrrrsssttttuuuvvvwwwwxxxyyyzzz+..+
(PID.TID 0000.0001) //     89 +..+zzzyyyxxxwwwwvvvuuuttttsssrrrrqqqppppoooonnnmmmmlllllkkkkjjjjiiiiihhhhhggggggfffffffeeeeeeedddddddddddccccccccccccccccccccccccccccccccccccccccdddddddddddeeeeeeefffffffgggggghhhhhiiiiijjjjkkkklllllmmmmnnnooooppppqqqrrrrsssttttuuuvvvwwwwxxxyyyzzz+..+
(PID.TID 0000.0001) //     88 +..+zzzyyyxxxxwwwvvvuuuutttsssrrrrqqqqpppoooonnnnmmmmllllkkkkjjjjjiiiiihhhhhggggggfffffffeeeeeeeeddddddddddccccccccccccccccccccccccccccccccccccccddddddddddeeeeeeeefffffffgggggghhhhhiiiiijjjjjkkkkllllmmmmnnnnoooopppqqqqrrrrssstttuuuuvvvwwwxxxxyyyzzz+..+
(PID.TID 0000.0001) //     87 +..+zzzyyyxxxxwwwvvvuuuutttssssrrrqqqqpppoooonnnnmmmmllllkkkkkjjjjiiiiihhhhhhggggggfffffffeeeeeeeeddddddddddddccccccccccccccccccccccccccccccccddddddddddddeeeeeeeefffffffgggggghhhhhhiiiiijjjjkkkkkllllmmmmnnnnoooopppqqqqrrrsssstttuuuuvvvwwwxxxxyyyzzz+..+
(PID.TID 0000.0001) //     86 +..+zzzyyyxxxxwwwvvvuuuutttssssrrrqqqqppppoooonnnnmmmmllllkkkkjjjjjiiiiihhhhhhggggggfffffffeeeeeeeedddddddddddddccccccccccccccccccccccccccccdddddddddddddeeeeeeeefffffffgggggghhhhhhiiiiijjjjjkkkkllllmmmmnnnnooooppppqqqqrrrsssstttuuuuvvvwwwxxxxyyyzzz+..+
(PID.TID 0000.0001) //     85 +..+zzzyyyxxxxwwwvvvvuuutttssssrrrrqqqppppoooonnnnmmmmllllkkkkkjjjjjiiiiihhhhhgggggggfffffffeeeeeeeeedddddddddddddddccccccccccccccccccccdddddddddddddddeeeeeeeeefffffffggggggghhhhhiiiiijjjjjkkkkkllllmmmmnnnnooooppppqqqrrrrsssstttuuuvvvvwwwxxxxyyyzzz+..+
(PID.TID 0000.0001) //     84 +..+zzzyyyxxxxwwwvvvvuuuttttsssrrrrqqqqpppoooonnnnmmmmlllllkkkkjjjjjiiiiihhhhhhgggggggfffffffeeeeeeeeeedddddddddddddddddddccccccccdddddddddddddddddddeeeeeeeeeefffffffggggggghhhhhhiiiiijjjjjkkkklllllmmmmnnnnoooopppqqqqrrrrsssttttuuuvvvvwwwxxxxyyyzzz+..+
(PID.TID 0000.0001) //     83 +..+zzzyyyxxxxwwwvvvvuuuttttsssrrrrqqqqppppoooonnnnmmmmllllkkkkkjjjjjiiiiihhhhhhgggggggfffffffeeeeeeeeeeeddddddddddddddddddddddddddddddddddddddddddeeeeeeeeeeefffffffggggggghhhhhhiiiiijjjjjkkkkkllllmmmmnnnnooooppppqqqqrrrrsssttttuuuvvvvwwwxxxxyyyzzz+..+
(PID.TID 0000.0001) //     82 +..+zzzyyyyxxxwwwvvvvuuuttttssssrrrqqqqppppoooonnnnmmmmlllllkkkkkjjjjjiiiiihhhhhhgggggggffffffffeeeeeeeeeeeddddddddddddddddddddddddddddddddddddddeeeeeeeeeeeffffffffggggggghhhhhhiiiiijjjjjkkkkklllllmmmmnnnnooooppppqqqqrrrssssttttuuuvvvvwwwxxxyyyyzzz+..+
(PID.TID 0000.0001) //     81 +..+zzzyyyyxxxwwwwvvvuuuutttssssrrrrqqqppppoooonnnnnmmmmllllkkkkkjjjjjiiiiiihhhhhhgggggggffffffffeeeeeeeeeeeeddddddddddddddddddddddddddddddddddeeeeeeeeeeeeffffffffggggggghhhhhhiiiiiijjjjjkkkkkllllmmmmnnnnnooooppppqqqrrrrsssstttuuuuvvvwwwwxxxyyyyzzz+..+
(PID.TID 0000.0001) //     80 +..+zzzyyyyxxxwwwwvvvuuuutttssssrrrrqqqqppppoooonnnnmmmmlllllkkkkkjjjjjiiiiiihhhhhhgggggggfffffffffeeeeeeeeeeeeeeddddddddddddddddddddddddddeeeeeeeeeeeeeefffffffffggggggghhhhhhiiiiiijjjjjkkkkklllllmmmmnnnnooooppppqqqqrrrrsssstttuuuuvvvwwwwxxxyyyyzzz+..+
(PID.TID 0000.0001) //     79 +..+zzzyyyyxxxwwwwvvvuuuuttttsssrrrrqqqqppppoooonnnnmmmmmlllllkkkkjjjjjjiiiiiihhhhhhgggggggffffffffffeeeeeeeeeeeeeeeeddddddddddddddddddeeeeeeeeeeeeeeeeffffffffffggggggghhhhhhiiiiiijjjjjjkkkklllllmmmmmnnnnooooppppqqqqrrrrsssttttuuuuvvvwwwwxxxyyyyzzz+..+
(PID.TID 0000.0001) //     78 +..+zzzyyyyxxxwwwwvvvvuuuttttssssrrrrqqqppppooooonnnnmmmmlllllkkkkkjjjjjjiiiiihhhhhhhggggggggffffffffffeeeeeeeeeeeeeeeeeeeeeeeeeeeeeeeeeeeeeeeeeeeeeeffffffffffgggggggghhhhhhhiiiiijjjjjjkkkkklllllmmmmnnnnoooooppppqqqrrrrssssttttuuuvvvvwwwwxxxyyyyzzz+..+
(PID.TID 0000.0001) //     77 +..+zzzyyyyxxxwwwwvvvvuuuttttssssrrrrqqqqppppoooonnnnmmmmmlllllkkkkkjjjjjiiiiiihhhhhhhggggggggfffffffffffeeeeeeeeeeeeeeeeeeeeeeeeeeeeeeeeeeeeeeeeeefffffffffffgggggggghhhhhhhiiiiiijjjjjkkkkklllllmmmmmnnnnooooppppqqqqrrrrssssttttuuuvvvvwwwwxxxyyyyzzz+..+
(PID.TID 0000.0001) //     76 +..+zzzyyyyxxxxwwwvvvvuuuutttssssrrrrqqqqppppooooonnnnmmmmmlllllkkkkkjjjjjiiiiiiihhhhhhhggggggggffffffffffffeeeeeeeeeeeeeeeeeeeeeeeeeeeeeeeeeeeeffffffffffffgggggggghhhhhhhiiiiiiijjjjjkkkkklllllmmmmmnnnnoooooppppqqqqrrrrsssstttuuuuvvvvwwwxxxxyyyyzzz+..+
(PID.TID 0000.0001) //     75 +..+zzzyyyyxxxxwwwvvvvuuuuttttssssrrrrqqqqppppoooonnnnnmmmmlllllkkkkkkjjjjjiiiiiiihhhhhhhgggggggggffffffffffffffeeeeeeeeeeeeeeeeeeeeeeeeeeeeffffffffffffffggggggggghhhhhhhiiiiiiijjjjjkkkkkklllllmmmmnnnnnooooppppqqqqrrrrssssttttuuuuvvvvwwwxxxxyyyyzzz+..+
(PID.TID 0000.0001) //     74 +..+zzzzyyyxxxxwwwwvvvuuuuttttssssrrrrqqqqppppooooonnnnmmmmmlllllkkkkkjjjjjjiiiiiiihhhhhhhggggggggggffffffffffffffffeeeeeeeeeeeeeeeeeeeeffffffffffffffffgggggggggghhhhhhhiiiiiiijjjjjjkkkkklllllmmmmmnnnnoooooppppqqqqrrrrssssttttuuuuvvvwwwwxxxxyyyzzzz+..+
(PID.TID 0000.0001) //     73 +..+zzzzyyyxxxxwwwwvvvuuuuttttssssrrrrqqqqpppppoooonnnnnmmmmmlllllkkkkkjjjjjjiiiiiiihhhhhhhhggggggggggffffffffffffffffffffffffffffffffffffffffffffffffgggggggggghhhhhhhhiiiiiiijjjjjjkkkkklllllmmmmmnnnnnoooopppppqqqqrrrrssssttttuuuuvvvwwwwxxxxyyyzzzz+..+
(PID.TID 0000.0001) //     72 +..+zzzzyyyxxxxwwwwvvvvuuuuttttssssrrrrqqqqppppooooonnnnmmmmmllllllkkkkkjjjjjjiiiiiiihhhhhhhhhgggggggggggffffffffffffffffffffffffffffffffffffffffffggggggggggghhhhhhhhhiiiiiiijjjjjjkkkkkllllllmmmmmnnnnoooooppppqqqqrrrrssssttttuuuuvvvvwwwwxxxxyyyzzzz+..+
(PID.TID 0000.0001) //     71 +..+zzzzyyyxxxxwwwwvvvvuuuuttttssssrrrrqqqqpppppoooonnnnnmmmmmlllllkkkkkkjjjjjjjiiiiiiihhhhhhhhhggggggggggggffffffffffffffffffffffffffffffffffffgggggggggggghhhhhhhhhiiiiiiijjjjjjjkkkkkklllllmmmmmnnnnnoooopppppqqqqrrrrssssttttuuuuvvvvwwwwxxxxyyyzzzz+..+
(PID.TID 0000.0001) //     70 +..+zzzzyyyyxxxwwwwvvvvuuuuttttssssrrrrqqqqqppppooooonnnnnmmmmmlllllkkkkkkjjjjjjjiiiiiiihhhhhhhhhhggggggggggggggffffffffffffffffffffffffffffgggggggggggggghhhhhhhhhhiiiiiiijjjjjjjkkkkkklllllmmmmmnnnnnoooooppppqqqqqrrrrssssttttuuuuvvvvwwwwxxxyyyyzzzz+..+
(PID.TID 0000.0001) //     69 +..+zzzzyyyyxxxxwwwvvvvuuuuttttsssssrrrrqqqqpppppooooonnnnmmmmmmlllllkkkkkkjjjjjjjiiiiiiiihhhhhhhhhhggggggggggggggggggffffffffffffffffgggggggggggggggggghhhhhhhhhhiiiiiiiijjjjjjjkkkkkklllllmmmmmmnnnnooooopppppqqqqrrrrsssssttttuuuuvvvvwwwxxxxyyyyzzzz+..+
(PID.TID 0000.0001) //     68 +..+zzzzyyyyxxxxwwwwvvvvuuuuttttssssrrrrqqqqqppppooooonnnnnmmmmmmlllllkkkkkkkjjjjjjjiiiiiiiihhhhhhhhhhhgggggggggggggggggggggggggggggggggggggggggggggghhhhhhhhhhhiiiiiiiijjjjjjjkkkkkkklllllmmmmmmnnnnnoooooppppqqqqqrrrrssssttttuuuuvvvvwwwwxxxxyyyyzzzz+..+
(PID.TID 0000.0001) //     67 +..+zzzzyyyyxxxxwwwwvvvvuuuuttttssssrrrrrqqqqpppppooooonnnnnmmmmmllllllkkkkkkkjjjjjjjiiiiiiiiihhhhhhhhhhhhgggggggggggggggggggggggggggggggggggggggghhhhhhhhhhhhiiiiiiiiijjjjjjjkkkkkkkllllllmmmmmnnnnnooooopppppqqqqrrrrrssssttttuuuuvvvvwwwwxxxxyyyyzzzz+..+
(PID.TID 0000.0001) //     66 +..+zzzzyyyyxxxxwwwwvvvvuuuutttttssssrrrrqqqqqpppppooooonnnnnmmmmmllllllkkkkkkkjjjjjjjjiiiiiiiiihhhhhhhhhhhhhhgggggggggggggggggggggggggggggggghhhhhhhhhhhhhhiiiiiiiiijjjjjjjjkkkkkkkllllllmmmmmnnnnnooooopppppqqqqqrrrrsssstttttuuuuvvvvwwwwxxxxyyyyzzzz+..+
(PID.TID 0000.0001) //     65 +..+zzzzyyyyxxxxwwwwvvvvuuuuuttttssssrrrrrqqqqpppppooooonnnnnnmmmmmlllllllkkkkkkjjjjjjjjiiiiiiiiiihhhhhhhhhhhhhhhhhgggggggggggggggggggggghhhhhhhhhhhhhhhhhiiiiiiiiiijjjjjjjjkkkkkklllllllmmmmmnnnnnnooooopppppqqqqrrrrrssssttttuuuuuvvvvwwwwxxxxyyyyzzzz+..+
(PID.TID 0000.0001) //     64 +..+zzzzyyyyxxxxwwwwvvvvvuuuuttttsssssrrrrqqqqqpppppooooonnnnnnmmmmmlllllllkkkkkkkjjjjjjjjiiiiiiiiiiihhhhhhhhhhhhhhhhhhhhhhhhhhhhhhhhhhhhhhhhhhhhhhhhhhiiiiiiiiiiijjjjjjjjkkkkkkklllllllmmmmmnnnnnnooooopppppqqqqqrrrrsssssttttuuuuvvvvvwwwwxxxxyyyyzzzz+..+
(PID.TID 0000.0001) //     63 +..+zzzzyyyyxxxxwwwwwvvvvuuuutttttssssrrrrrqqqqqpppppooooonnnnnnmmmmmmllllllkkkkkkkkjjjjjjjjiiiiiiiiiiiihhhhhhhhhhhhhhhhhhhhhhhhhhhhhhhhhhhhhhhhhhhhiiiiiiiiiiiijjjjjjjjkkkkkkkkllllllmmmmmmnnnnnnooooopppppqqqqqrrrrrsssstttttuuuuvvvvwwwwwxxxxyyyyzzzz+..+
(PID.TID 0000.0001) //     62 +..+zzzzyyyyxxxxxwwwwvvvvuuuuuttttsssssrrrrqqqqqpppppoooooonnnnnnmmmmmmlllllllkkkkkkkjjjjjjjjjjiiiiiiiiiiiiihhhhhhhhhhhhhhhhhhhhhhhhhhhhhhhhhhhhiiiiiiiiiiiiijjjjjjjjjjkkkkkkklllllllmmmmmmnnnnnnoooooopppppqqqqqrrrrsssssttttuuuuuvvvvwwwwxxxxxyyyyzzzz+..+
(PID.TID 0000.0001) //     61 +..+zzzzyyyyyxxxxwwwwvvvvvuuuutttttssssrrrrrqqqqqpppppoooooonnnnnnmmmmmmlllllllkkkkkkkkjjjjjjjjjjiiiiiiiiiiiiiiiiihhhhhhhhhhhhhhhhhhhhhhhhiiiiiiiiiiiiiiiiijjjjjjjjjjkkkkkkkklllllllmmmmmmnnnnnnoooooopppppqqqqqrrrrrsssstttttuuuuvvvvvwwwwxxxxyyyyyzzzz+..+
(PID.TID 0000.0001) //     60 +..+zzzzyyyyyxxxxwwwwvvvvvuuuutttttsssssrrrrrqqqqqpppppoooooonnnnnnmmmmmmllllllllkkkkkkkkjjjjjjjjjjjiiiiiiiiiiiiiiiiiiiiiiiiiiiiiiiiiiiiiiiiiiiiiiiiiiiijjjjjjjjjjjkkkkkkkkllllllllmmmmmmnnnnnnoooooopppppqqqqqrrrrrssssstttttuuuuvvvvvwwwwxxxxyyyyyzzzz+..+
(PID.TID 0000.0001) //     59 +..+zzzzzyyyyxxxxwwwwwvvvvuuuuutttttssssrrrrrqqqqqppppppoooooonnnnnnmmmmmmmlllllllkkkkkkkkkjjjjjjjjjjjjjiiiiiiiiiiiiiiiiiiiiiiiiiiiiiiiiiiiiiiiiiiiijjjjjjjjjjjjjkkkkkkkkklllllllmmmmmmmnnnnnnooooooppppppqqqqqrrrrrsssstttttuuuuuvvvvwwwwwxxxxyyyyzzzzz+..+
(PID.TID 0000.0001) //     58 +..+zzzzzyyyyxxxxxwwwwvvvvvuuuutttttsssssrrrrrqqqqqppppppoooooonnnnnnmmmmmmmllllllllkkkkkkkkkkjjjjjjjjjjjjjjiiiiiiiiiiiiiiiiiiiiiiiiiiiiiiiiiiiijjjjjjjjjjjjjjkkkkkkkkkkllllllllmmmmmmmnnnnnnooooooppppppqqqqqrrrrrssssstttttuuuuvvvvvwwwwxxxxxyyyyzzzzz+..+
(PID.TID 0000.0001) //     57 +..+zzzzzyyyyxxxxxwwwwvvvvvuuuuutttttsssssrrrrrqqqqqppppppoooooonnnnnnmmmmmmmmllllllllkkkkkkkkkkkjjjjjjjjjjjjjjjjjiiiiiiiiiiiiiiiiiiiiiiiijjjjjjjjjjjjjjjjjkkkkkkkkkkkllllllllmmmmmmmmnnnnnnooooooppppppqqqqqrrrrrssssstttttuuuuuvvvvvwwwwxxxxxyyyyzzzzz+..+
(PID.TID 0000.0001) //     56 +..+zzzzzyyyyxxxxxwwwwwvvvvuuuuutttttsssssrrrrrqqqqqqppppppoooooonnnnnnnmmmmmmmlllllllllkkkkkkkkkkkkjjjjjjjjjjjjjjjjjjjjjjjjjjjjjjjjjjjjjjjjjjjjjjjjjjjjkkkkkkkkkkkklllllllllmmmmmmmnnnnnnnooooooppppppqqqqqqrrrrrssssstttttuuuuuvvvvwwwwwxxxxxyyyyzzzzz+..+
(PID.TID 0000.0001) //     55 +..+zzzzzyyyyyxxxxwwwwwvvvvvuuuuutttttsssssrrrrrqqqqqqppppppoooooonnnnnnnmmmmmmmmllllllllllkkkkkkkkkkkkkjjjjjjjjjjjjjjjjjjjjjjjjjjjjjjjjjjjjjjjjjjjjkkkkkkkkkkkkkllllllllllmmmmmmmmnnnnnnnooooooppppppqqqqqqrrrrrssssstttttuuuuuvvvvvwwwwwxxxxyyyyyzzzzz+..+
(PID.TID 0000.0001) //     54 +..+zzzzzyyyyyxxxxwwwwwvvvvvuuuuutttttssssssrrrrrqqqqqqppppppooooooonnnnnnnmmmmmmmmllllllllllkkkkkkkkkkkkkkkjjjjjjjjjjjjjjjjjjjjjjjjjjjjjjjjjjjjkkkkkkkkkkkkkkkllllllllllmmmmmmmmnnnnnnnoooooooppppppqqqqqqrrrrrsssssstttttuuuuuvvvvvwwwwwxxxxyyyyyzzzzz+..+
(PID.TID 0000.0001) //     53 +..+zzzzzyyyyyxxxxxwwwwwvvvvvuuuuutttttsssssrrrrrrqqqqqqppppppooooooonnnnnnnnmmmmmmmmlllllllllllkkkkkkkkkkkkkkkkkkkjjjjjjjjjjjjjjjjjjjjjjkkkkkkkkkkkkkkkkkkklllllllllllmmmmmmmmnnnnnnnnoooooooppppppqqqqqqrrrrrrssssstttttuuuuuvvvvvwwwwwxxxxxyyyyyzzzzz+..+
(PID.TID 0000.0001) //     52 +..+zzzzzyyyyyxxxxxwwwwwvvvvvuuuuuttttttsssssrrrrrrqqqqqqppppppoooooooonnnnnnnmmmmmmmmmmllllllllllllkkkkkkkkkkkkkkkkkkkkkkkkkkkkkkkkkkkkkkkkkkkkkkkkkkkkllllllllllllmmmmmmmmmmnnnnnnnooooooooppppppqqqqqqrrrrrrsssssttttttuuuuuvvvvvwwwwwxxxxxyyyyyzzzzz+..+
(PID.TID 0000.0001) //     51 +..+zzzzzyyyyyxxxxxwwwwwvvvvvvuuuuutttttssssssrrrrrrqqqqqqpppppppooooooonnnnnnnnmmmmmmmmmmllllllllllllllkkkkkkkkkkkkkkkkkkkkkkkkkkkkkkkkkkkkkkkkkkkkllllllllllllllmmmmmmmmmmnnnnnnnnooooooopppppppqqqqqqrrrrrrsssssstttttuuuuuvvvvvvwwwwwxxxxxyyyyyzzzzz+..+
(PID.TID 0000.0001) //     50 +..++zzzzzyyyyyxxxxxwwwwwvvvvvuuuuuttttttssssssrrrrrrqqqqqqpppppppoooooooonnnnnnnnnmmmmmmmmmmlllllllllllllllllkkkkkkkkkkkkkkkkkkkkkkkkkkkkkkkklllllllllllllllllmmmmmmmmmmnnnnnnnnnoooooooopppppppqqqqqqrrrrrrssssssttttttuuuuuvvvvvwwwwwxxxxxyyyyyzzzzz++..+
(PID.TID 0000.0001) //     49 +..++zzzzzyyyyyxxxxxwwwwwvvvvvvuuuuuttttttssssssrrrrrrqqqqqqppppppppoooooooonnnnnnnnnmmmmmmmmmmmmllllllllllllllllllllllkkkkkkkkkkkkkkllllllllllllllllllllllmmmmmmmmmmmmnnnnnnnnnooooooooppppppppqqqqqqrrrrrrssssssttttttuuuuuvvvvvvwwwwwxxxxxyyyyyzzzzz++..+
(PID.TID 0000.0001) //     48 +..++zzzzzyyyyyxxxxxwwwwwwvvvvvuuuuuuttttttssssssrrrrrrqqqqqqqpppppppooooooooonnnnnnnnnnmmmmmmmmmmmmmllllllllllllllllllllllllllllllllllllllllllllllllllmmmmmmmmmmmmmnnnnnnnnnnooooooooopppppppqqqqqqqrrrrrrssssssttttttuuuuuuvvvvvwwwwwwxxxxxyyyyyzzzzz++..+
(PID.TID 0000.0001) //     47 +..++zzzzzyyyyyxxxxxxwwwwwvvvvvvuuuuuttttttsssssssrrrrrrqqqqqqqppppppppooooooooonnnnnnnnnnmmmmmmmmmmmmmmmmllllllllllllllllllllllllllllllllllllllllmmmmmmmmmmmmmmmmnnnnnnnnnnoooooooooppppppppqqqqqqqrrrrrrsssssssttttttuuuuuvvvvvvwwwwwxxxxxxyyyyyzzzzz++..+
(PID.TID 0000.0001) //     46 +..++zzzzzyyyyyyxxxxxwwwwwwvvvvvuuuuuuttttttsssssssrrrrrrqqqqqqqqppppppppooooooooonnnnnnnnnnnnmmmmmmmmmmmmmmmmmmmllllllllllllllllllllllllllmmmmmmmmmmmmmmmmmmmnnnnnnnnnnnnoooooooooppppppppqqqqqqqqrrrrrrsssssssttttttuuuuuuvvvvvwwwwwwxxxxxyyyyyyzzzzz++..+
(PID.TID 0000.0001) //     45 +..++zzzzzyyyyyyxxxxxwwwwwwvvvvvvuuuuuuttttttsssssssrrrrrrrqqqqqqqpppppppppoooooooooonnnnnnnnnnnnnmmmmmmmmmmmmmmmmmmmmmmmmmmmmmmmmmmmmmmmmmmmmmmmmmmmmmmmmnnnnnnnnnnnnnoooooooooopppppppppqqqqqqqrrrrrrrsssssssttttttuuuuuuvvvvvvwwwwwwxxxxxyyyyyyzzzzz++..+
(PID.TID 0000.0001) //     44 +..++zzzzzyyyyyyxxxxxxwwwwwwvvvvvvuuuuuuttttttsssssssrrrrrrrqqqqqqqqpppppppppooooooooooonnnnnnnnnnnnnnmmmmmmmmmmmmmmmmmmmmmmmmmmmmmmmmmmmmmmmmmmmmmmmmnnnnnnnnnnnnnnooooooooooopppppppppqqqqqqqqrrrrrrrsssssssttttttuuuuuuvvvvvvwwwwwwxxxxxxyyyyyyzzzzz++..+
(PID.TID 0000.0001) //     43 +..++zzzzzzyyyyyxxxxxxwwwwwwvvvvvvuuuuuuuttttttsssssssrrrrrrrrqqqqqqqqpppppppppoooooooooooonnnnnnnnnnnnnnnnnmmmmmmmmmmmmmmmmmmmmmmmmmmmmmmmmmmmmnnnnnnnnnnnnnnnnnoooooooooooopppppppppqqqqqqqqrrrrrrrrsssssssttttttuuuuuuuvvvvvvwwwwwwxxxxxxyyyyyzzzzzz++..+
(PID.TID 0000.0001) //     42 +..++zzzzzzyyyyyyxxxxxxwwwwwwvvvvvvuuuuuuuttttttssssssssrrrrrrrqqqqqqqqqppppppppppooooooooooooonnnnnnnnnnnnnnnnnnnnnnnnnmmmmmmmmmmmmnnnnnnnnnnnnnnnnnnnnnnnnnoooooooooooooppppppppppqqqqqqqqqrrrrrrrssssssssttttttuuuuuuuvvvvvvwwwwwwxxxxxxyyyyyyzzzzzz++..+
(PID.TID 0000.0001) //     41 +..++zzzzzzyyyyyyxxxxxxwwwwwwvvvvvvvuuuuuuutttttttsssssssrrrrrrrrqqqqqqqqqpppppppppppoooooooooooooonnnnnnnnnnnnnnnnnnnnnnnnnnnnnnnnnnnnnnnnnnnnnnnnnnnnnnoooooooooooooopppppppppppqqqqqqqqqrrrrrrrrssssssstttttttuuuuuuuvvvvvvvwwwwwwxxxxxxyyyyyyzzzzzz++..+
(PID.TID 0000.0001) //     40 +..++zzzzzzyyyyyyxxxxxxxwwwwwwvvvvvvvuuuuuuutttttttssssssssrrrrrrrrqqqqqqqqqqpppppppppppooooooooooooooooonnnnnnnnnnnnnnnnnnnnnnnnnnnnnnnnnnnnnnnnnnooooooooooooooooopppppppppppqqqqqqqqqqrrrrrrrrsssssssstttttttuuuuuuuvvvvvvvwwwwwwxxxxxxxyyyyyyzzzzzz++..+
(PID.TID 0000.0001) //     39 +..++zzzzzzyyyyyyyxxxxxxwwwwwwwvvvvvvvuuuuuuutttttttssssssssrrrrrrrrrqqqqqqqqqqpppppppppppppoooooooooooooooooooooonnnnnnnnnnnnnnnnnnnnnnnnoooooooooooooooooooooopppppppppppppqqqqqqqqqqrrrrrrrrrsssssssstttttttuuuuuuuvvvvvvvwwwwwwwxxxxxxyyyyyyyzzzzzz++..+
(PID.TID 0000.0001) //     38 +..++zzzzzzzyyyyyyxxxxxxxwwwwwwvvvvvvvuuuuuuuuttttttttssssssssrrrrrrrrrqqqqqqqqqqqpppppppppppppppoooooooooooooooooooooooooooooooooooooooooooooooooooooooooopppppppppppppppqqqqqqqqqqqrrrrrrrrrssssssssttttttttuuuuuuuuvvvvvvvwwwwwwxxxxxxxyyyyyyzzzzzzz++..+
(PID.TID 0000.0001) //     37 +..++zzzzzzzyyyyyyyxxxxxxwwwwwwwvvvvvvvuuuuuuuuttttttttsssssssssrrrrrrrrrrqqqqqqqqqqqqppppppppppppppppooooooooooooooooooooooooooooooooooooooooooooooooppppppppppppppppqqqqqqqqqqqqrrrrrrrrrrsssssssssttttttttuuuuuuuuvvvvvvvwwwwwwwxxxxxxyyyyyyyzzzzzzz++..+
(PID.TID 0000.0001) //     36 +..++zzzzzzzyyyyyyyxxxxxxxwwwwwwwvvvvvvvvuuuuuuutttttttttsssssssssrrrrrrrrrrrqqqqqqqqqqqqqppppppppppppppppppppooooooooooooooooooooooooooooooooppppppppppppppppppppqqqqqqqqqqqqqrrrrrrrrrrrssssssssstttttttttuuuuuuuvvvvvvvvwwwwwwwxxxxxxxyyyyyyyzzzzzzz++..+
(PID.TID 0000.0001) //     35 +..+++zzzzzzyyyyyyyxxxxxxxxwwwwwwwvvvvvvvvuuuuuuuutttttttttsssssssssrrrrrrrrrrrrqqqqqqqqqqqqqqppppppppppppppppppppppppppppppppppppppppppppppppppppppppppppppppqqqqqqqqqqqqqqrrrrrrrrrrrrssssssssstttttttttuuuuuuuuvvvvvvvvwwwwwwwxxxxxxxxyyyyyyyzzzzzz+++..+
(PID.TID 0000.0001) //     34 +..+++zzzzzzzyyyyyyyxxxxxxxwwwwwwwwvvvvvvvvuuuuuuuuttttttttttssssssssssrrrrrrrrrrrrqqqqqqqqqqqqqqqqqppppppppppppppppppppppppppppppppppppppppppppppppppppqqqqqqqqqqqqqqqqqrrrrrrrrrrrrssssssssssttttttttttuuuuuuuuvvvvvvvvwwwwwwwwxxxxxxxyyyyyyyzzzzzzz+++..+
(PID.TID 0000.0001) //     33 +..+++zzzzzzzyyyyyyyxxxxxxxxwwwwwwwwvvvvvvvvuuuuuuuuuttttttttttsssssssssssrrrrrrrrrrrrrqqqqqqqqqqqqqqqqqqqqppppppppppppppppppppppppppppppppppppppqqqqqqqqqqqqqqqqqqqqrrrrrrrrrrrrrsssssssssssttttttttttuuuuuuuuuvvvvvvvvwwwwwwwwxxxxxxxxyyyyyyyzzzzzzz+++..+
(PID.TID 0000.0001) //     32 +..+++zzzzzzzyyyyyyyyxxxxxxxxwwwwwwwwvvvvvvvvvuuuuuuuuuttttttttttssssssssssssrrrrrrrrrrrrrrrqqqqqqqqqqqqqqqqqqqqqqqqqqqqqqqqqqqqqqqqqqqqqqqqqqqqqqqqqqqqqqqqqqqqrrrrrrrrrrrrrrrssssssssssssttttttttttuuuuuuuuuvvvvvvvvvwwwwwwwwxxxxxxxxyyyyyyyyzzzzzzz+++..+
(PID.TID 0000.0001) //     31 +..+++zzzzzzzzyyyyyyyyxxxxxxxxwwwwwwwwvvvvvvvvvuuuuuuuuuutttttttttttssssssssssssrrrrrrrrrrrrrrrrrqqqqqqqqqqqqqqqqqqqqqqqqqqqqqqqqqqqqqqqqqqqqqqqqqqqqqqqqqqrrrrrrrrrrrrrrrrrsssssssssssstttttttttttuuuuuuuuuuvvvvvvvvvwwwwwwwwxxxxxxxxyyyyyyyyzzzzzzzz+++..+
(PID.TID 0000.0001) //     30 +..+++zzzzzzzzyyyyyyyyxxxxxxxxxwwwwwwwwvvvvvvvvvvuuuuuuuuuutttttttttttssssssssssssssrrrrrrrrrrrrrrrrrrrrrqqqqqqqqqqqqqqqqqqqqqqqqqqqqqqqqqqqqqqqqqqrrrrrrrrrrrrrrrrrrrrrsssssssssssssstttttttttttuuuuuuuuuuvvvvvvvvvvwwwwwwwwxxxxxxxxxyyyyyyyyzzzzzzzz+++..+
(PID.TID 0000.0001) //     29 +..+++zzzzzzzzzyyyyyyyyxxxxxxxxxwwwwwwwwwvvvvvvvvvvuuuuuuuuuutttttttttttttsssssssssssssssrrrrrrrrrrrrrrrrrrrrrrrrrrrrrrrqqqqqqqqqqqqrrrrrrrrrrrrrrrrrrrrrrrrrrrrrrrssssssssssssssstttttttttttttuuuuuuuuuuvvvvvvvvvvwwwwwwwwwxxxxxxxxxyyyyyyyyzzzzzzzzz+++..+
(PID.TID 0000.0001) //     28 +..+++zzzzzzzzzyyyyyyyyyxxxxxxxxxwwwwwwwwwvvvvvvvvvvvuuuuuuuuuuutttttttttttttssssssssssssssssssrrrrrrrrrrrrrrrrrrrrrrrrrrrrrrrrrrrrrrrrrrrrrrrrrrrrrrrrrrrrrrsssssssssssssssssstttttttttttttuuuuuuuuuuuvvvvvvvvvvvwwwwwwwwwxxxxxxxxxyyyyyyyyyzzzzzzzzz+++..+
(PID.TID 0000.0001) //     27 +..++++zzzzzzzzyyyyyyyyyyxxxxxxxxxwwwwwwwwwwvvvvvvvvvvvuuuuuuuuuuuuttttttttttttttssssssssssssssssssssssrrrrrrrrrrrrrrrrrrrrrrrrrrrrrrrrrrrrrrrrrrrrrrssssssssssssssssssssssttttttttttttttuuuuuuuuuuuuvvvvvvvvvvvwwwwwwwwwwxxxxxxxxxyyyyyyyyyyzzzzzzzz++++..+
(PID.TID 0000.0001) //     26 +..++++zzzzzzzzzyyyyyyyyyxxxxxxxxxxwwwwwwwwwwwvvvvvvvvvvvuuuuuuuuuuuuuttttttttttttttttssssssssssssssssssssssssssssssrrrrrrrrrrrrrrrrrrrrssssssssssssssssssssssssssssssttttttttttttttttuuuuuuuuuuuuuvvvvvvvvvvvwwwwwwwwwwwxxxxxxxxxxyyyyyyyyyzzzzzzzzz++++..+
(PID.TID 0000.0001) //     25 +..++++zzzzzzzzzzyyyyyyyyyxxxxxxxxxxxwwwwwwwwwwwvvvvvvvvvvvvuuuuuuuuuuuuuuttttttttttttttttttssssssssssssssssssssssssssssssssssssssssssssssssssssssssssssssssssssttttttttttttttttttuuuuuuuuuuuuuuvvvvvvvvvvvvwwwwwwwwwwwxxxxxxxxxxxyyyyyyyyyzzzzzzzzzz++++..+
(PID.TID 0000.0001) //     24 +..++++zzzzzzzzzzyyyyyyyyyyxxxxxxxxxxxwwwwwwwwwwwwvvvvvvvvvvvvvuuuuuuuuuuuuuuuttttttttttttttttttttttssssssssssssssssssssssssssssssssssssssssssssssssssssttttttttttttttttttttttuuuuuuuuuuuuuuuvvvvvvvvvvvvvwwwwwwwwwwwwxxxxxxxxxxxyyyyyyyyyyzzzzzzzzzz++++..+
(PID.TID 0000.0001) //     23 +..++++zzzzzzzzzzzyyyyyyyyyyyxxxxxxxxxxxwwwwwwwwwwwwvvvvvvvvvvvvvvuuuuuuuuuuuuuuuuutttttttttttttttttttttttttttttttsssssssssssssssssssssssstttttttttttttttttttttttttttttttuuuuuuuuuuuuuuuuuvvvvvvvvvvvvvvwwwwwwwwwwwwxxxxxxxxxxxyyyyyyyyyyyzzzzzzzzzzz++++..+
(PID.TID 0000.0001) //     22 +..+++++zzzzzzzzzzzyyyyyyyyyyyxxxxxxxxxxxxwwwwwwwwwwwwwvvvvvvvvvvvvvvvuuuuuuuuuuuuuuuuuuuuttttttttttttttttttttttttttttttttttttttttttttttttttttttttttttttttttttttttuuuuuuuuuuuuuuuuuuuuvvvvvvvvvvvvvvvwwwwwwwwwwwwwxxxxxxxxxxxxyyyyyyyyyyyzzzzzzzzzzz+++++..+
(PID.TID 0000.0001) //     21 +..+++++zzzzzzzzzzzyyyyyyyyyyyyxxxxxxxxxxxxxwwwwwwwwwwwwwwvvvvvvvvvvvvvvvvuuuuuuuuuuuuuuuuuuuuuuuuttttttttttttttttttttttttttttttttttttttttttttttttttttttttuuuuuuuuuuuuuuuuuuuuuuuuvvvvvvvvvvvvvvvvwwwwwwwwwwwwwwxxxxxxxxxxxxxyyyyyyyyyyyyzzzzzzzzzzz+++++..+
(PID.TID 0000.0001) //     20 +..+++++zzzzzzzzzzzzyyyyyyyyyyyyyxxxxxxxxxxxxxwwwwwwwwwwwwwwwvvvvvvvvvvvvvvvvvvvuuuuuuuuuuuuuuuuuuuuuuuuuuuuuuuuuttttttttttttttttttttttttttuuuuuuuuuuuuuuuuuuuuuuuuuuuuuuuuuvvvvvvvvvvvvvvvvvvvwwwwwwwwwwwwwwwxxxxxxxxxxxxxyyyyyyyyyyyyyzzzzzzzzzzzz+++++..+
(PID.TID 0000.0001) //     19 +..+++++zzzzzzzzzzzzzyyyyyyyyyyyyyxxxxxxxxxxxxxxxwwwwwwwwwwwwwwwwvvvvvvvvvvvvvvvvvvvvvvuuuuuuuuuuuuuuuuuuuuuuuuuuuuuuuuuuuuuuuuuuuuuuuuuuuuuuuuuuuuuuuuuuuuuuuuuuuuuuvvvvvvvvvvvvvvvvvvvvvvwwwwwwwwwwwwwwwwxxxxxxxxxxxxxxxyyyyyyyyyyyyyzzzzzzzzzzzzz+++++..+
(PID.TID 0000.0001) //     18 +..++++++zzzzzzzzzzzzzyyyyyyyyyyyyyyxxxxxxxxxxxxxxxxwwwwwwwwwwwwwwwwwwvvvvvvvvvvvvvvvvvvvvvvvvvvuuuuuuuuuuuuuuuuuuuuuuuuuuuuuuuuuuuuuuuuuuuuuuuuuuuuuuuuuuuuvvvvvvvvvvvvvvvvvvvvvvvvvvwwwwwwwwwwwwwwwwwwxxxxxxxxxxxxxxxxyyyyyyyyyyyyyyzzzzzzzzzzzzz++++++..+
(PID.TID 0000.0001) //     17 +..++++++zzzzzzzzzzzzzzzyyyyyyyyyyyyyyyxxxxxxxxxxxxxxxxwwwwwwwwwwwwwwwwwwwwwvvvvvvvvvvvvvvvvvvvvvvvvvvvvvvvvvvvuuuuuuuuuuuuuuuuuuuuuuuuuuuuuuvvvvvvvvvvvvvvvvvvvvvvvvvvvvvvvvvvvwwwwwwwwwwwwwwwwwwwwwxxxxxxxxxxxxxxxxyyyyyyyyyyyyyyyzzzzzzzzzzzzzzz++++++..+
(PID.TID 0000.0001) //     16 +..+++++++zzzzzzzzzzzzzzzyyyyyyyyyyyyyyyyxxxxxxxxxxxxxxxxxxxwwwwwwwwwwwwwwwwwwwwwwwvvvvvvvvvvvvvvvvvvvvvvvvvvvvvvvvvvvvvvvvvvvvvvvvvvvvvvvvvvvvvvvvvvvvvvvvvvvvvvvvvvvvvvwwwwwwwwwwwwwwwwwwwwwwwxxxxxxxxxxxxxxxxxxxyyyyyyyyyyyyyyyyzzzzzzzzzzzzzzz+++++++..+
(PID.TID 0000.0001) //     15 +..+++++++zzzzzzzzzzzzzzzzzyyyyyyyyyyyyyyyyyxxxxxxxxxxxxxxxxxxxxwwwwwwwwwwwwwwwwwwwwwwwwwwwwwvvvvvvvvvvvvvvvvvvvvvvvvvvvvvvvvvvvvvvvvvvvvvvvvvvvvvvvvvvvvvvvvvvwwwwwwwwwwwwwwwwwwwwwwwwwwwwwxxxxxxxxxxxxxxxxxxxxyyyyyyyyyyyyyyyyyzzzzzzzzzzzzzzzzz+++++++..+
(PID.TID 0000.0001) //     14 +..++++++++zzzzzzzzzzzzzzzzzyyyyyyyyyyyyyyyyyyyyxxxxxxxxxxxxxxxxxxxxxxxwwwwwwwwwwwwwwwwwwwwwwwwwwwwwwwwwwwwwwwwvvvvvvvvvvvvvvvvvvvvvvvvvvvvvvwwwwwwwwwwwwwwwwwwwwwwwwwwwwwwwwwwwwwwwwxxxxxxxxxxxxxxxxxxxxxxxyyyyyyyyyyyyyyyyyyyyzzzzzzzzzzzzzzzzz++++++++..+
(PID.TID 0000.0001) //     13 +..++++++++zzzzzzzzzzzzzzzzzzzzyyyyyyyyyyyyyyyyyyyyyxxxxxxxxxxxxxxxxxxxxxxxxxxwwwwwwwwwwwwwwwwwwwwwwwwwwwwwwwwwwwwwwwwwwwwwwwwwwwwwwwwwwwwwwwwwwwwwwwwwwwwwwwwwwwwwwwwwwwwwwwwxxxxxxxxxxxxxxxxxxxxxxxxxxyyyyyyyyyyyyyyyyyyyyyzzzzzzzzzzzzzzzzzzzz++++++++..+
(PID.TID 0000.0001) //     12 +..+++++++++zzzzzzzzzzzzzzzzzzzzzyyyyyyyyyyyyyyyyyyyyyyyyxxxxxxxxxxxxxxxxxxxxxxxxxxxxxxxxxwwwwwwwwwwwwwwwwwwwwwwwwwwwwwwwwwwwwwwwwwwwwwwwwwwwwwwwwwwwwwwwwwwwwwwwwxxxxxxxxxxxxxxxxxxxxxxxxxxxxxxxxxyyyyyyyyyyyyyyyyyyyyyyyyzzzzzzzzzzzzzzzzzzzzz+++++++++..+
(PID.TID 0000.0001) //     11 +..++++++++++zzzzzzzzzzzzzzzzzzzzzzzyyyyyyyyyyyyyyyyyyyyyyyyyyyxxxxxxxxxxxxxxxxxxxxxxxxxxxxxxxxxxxxxxxxxxxxxxxwwwwwwwwwwwwwwwwwwwwwwwwwwwwwwwwxxxxxxxxxxxxxxxxxxxxxxxxxxxxxxxxxxxxxxxxxxxxxxxyyyyyyyyyyyyyyyyyyyyyyyyyyyzzzzzzzzzzzzzzzzzzzzzzz++++++++++..+
(PID.TID 0000.0001) //     10 +..+++++++++++zzzzzzzzzzzzzzzzzzzzzzzzzzyyyyyyyyyyyyyyyyyyyyyyyyyyyyyyyyxxxxxxxxxxxxxxxxxxxxxxxxxxxxxxxxxxxxxxxxxxxxxxxxxxxxxxxxxxxxxxxxxxxxxxxxxxxxxxxxxxxxxxxxxxxxxxxxxxxxxxxxxxxxyyyyyyyyyyyyyyyyyyyyyyyyyyyyyyyyzzzzzzzzzzzzzzzzzzzzzzzzzz+++++++++++..+
(PID.TID 0000.0001) //      9 +..+++++++++++++zzzzzzzzzzzzzzzzzzzzzzzzzzzzzyyyyyyyyyyyyyyyyyyyyyyyyyyyyyyyyyyyyyyyxxxxxxxxxxxxxxxxxxxxxxxxxxxxxxxxxxxxxxxxxxxxxxxxxxxxxxxxxxxxxxxxxxxxxxxxxxxxxxxxxxxxyyyyyyyyyyyyyyyyyyyyyyyyyyyyyyyyyyyyyyyzzzzzzzzzzzzzzzzzzzzzzzzzzzzz+++++++++++++..+
(PID.TID 0000.0001) //      8 +..+++++++++++++++zzzzzzzzzzzzzzzzzzzzzzzzzzzzzzzzzzyyyyyyyyyyyyyyyyyyyyyyyyyyyyyyyyyyyyyyyyyyyyyyyyyyyyyyyyyyxxxxxxxxxxxxxxxxxxxxxxxxxxxxxxxxyyyyyyyyyyyyyyyyyyyyyyyyyyyyyyyyyyyyyyyyyyyyyyyyyyyyyyyyyyzzzzzzzzzzzzzzzzzzzzzzzzzzzzzzzzzz+++++++++++++++..+
(PID.TID 0000.0001) //      7 +..+++++++++++++++++zzzzzzzzzzzzzzzzzzzzzzzzzzzzzzzzzzzzzzzzzyyyyyyyyyyyyyyyyyyyyyyyyyyyyyyyyyyyyyyyyyyyyyyyyyyyyyyyyyyyyyyyyyyyyyyyyyyyyyyyyyyyyyyyyyyyyyyyyyyyyyyyyyyyyyyyyyyyyyyyyyyyyyyyyyyzzzzzzzzzzzzzzzzzzzzzzzzzzzzzzzzzzzzzzzzz+++++++++++++++++..+
(PID.TID 0000.0001) //      6 +..+++++++++++++++++++++zzzzzzzzzzzzzzzzzzzzzzzzzzzzzzzzzzzzzzzzzzzzzzzzzzzzyyyyyyyyyyyyyyyyyyyyyyyyyyyyyyyyyyyyyyyyyyyyyyyyyyyyyyyyyyyyyyyyyyyyyyyyyyyyyyyyyyyyyyyyyyyyyyyyyyyyzzzzzzzzzzzzzzzzzzzzzzzzzzzzzzzzzzzzzzzzzzzzzzzzzzzz+++++++++++++++++++++..+
(PID.TID 0000.0001) //      5 +..++++++++++++++++++++++++++zzzzzzzzzzzzzzzzzzzzzzzzzzzzzzzzzzzzzzzzzzzzzzzzzzzzzzzzzzzzzzzzzzzzzzzzzzzzzzzzzzyyyyyyyyyyyyyyyyyyyyyyyyyyyyyyzzzzzzzzzzzzzzzzzzzzzzzzzzzzzzzzzzzzzzzzzzzzzzzzzzzzzzzzzzzzzzzzzzzzzzzzzzzzzzzzzz++++++++++++++++++++++++++..+
(PID.TID 0000.0001) //      4 +..++++++++++++++++++++++++++++++++++zzzzzzzzzzzzzzzzzzzzzzzzzzzzzzzzzzzzzzzzzzzzzzzzzzzzzzzzzzzzzzzzzzzzzzzzzzzzzzzzzzzzzzzzzzzzzzzzzzzzzzzzzzzzzzzzzzzzzzzzzzzzzzzzzzzzzzzzzzzzzzzzzzzzzzzzzzzzzzzzzzzzzzzzzzzzzzzzzz++++++++++++++++++++++++++++++++++..+
(PID.TID 0000.0001) //      3 +..+++++++++++++++++++++++++++++++++++++++++++++++++zzzzzzzzzzzzzzzzzzzzzzzzzzzzzzzzzzzzzzzzzzzzzzzzzzzzzzzzzzzzzzzzzzzzzzzzzzzzzzzzzzzzzzzzzzzzzzzzzzzzzzzzzzzzzzzzzzzzzzzzzzzzzzzzzzzzzzzzzzzzzzzzzzzz+++++++++++++++++++++++++++++++++++++++++++++++++..+
(PID.TID 0000.0001) //      2 +..++++++++++++++++++++++++++++++++++++++++++++++++++++++++++++++++++++++++++++++++++++++++++++++++++++++++++++++++++zzzzzzzzzzzzzzzzzz++++++++++++++++++++++++++++++++++++++++++++++++++++++++++++++++++++++++++++++++++++++++++++++++++++++++++++++++++..+
(PID.TID 0000.0001) //      1 ............................................................................................................................................................................................................................................................
(PID.TID 0000.0001) //      0 ............................................................................................................................................................................................................................................................
(PID.TID 0000.0001) //     -1 +..++++++++++++++++++++++++++++++++++++++++++++++++++++++++++++++++++++++++++++++++++++++++++++++++++++++++++++++++++zzzzzzzzzzzzzzzzzz++++++++++++++++++++++++++++++++++++++++++++++++++++++++++++++++++++++++++++++++++++++++++++++++++++++++++++++++++..+
(PID.TID 0000.0001) // =======================================================
(PID.TID 0000.0001) // END OF FIELD                                          =
(PID.TID 0000.0001) // =======================================================
(PID.TID 0000.0001) 
(PID.TID 0000.0001) // =======================================================
(PID.TID 0000.0001) // Field hFacW at iteration          0
(PID.TID 0000.0001) // CMIN =          9.000040039062500E-01
(PID.TID 0000.0001) // CMAX =          9.999398437500000E-01
(PID.TID 0000.0001) // CINT =          3.701327401620370E-03
(PID.TID 0000.0001) // SYMBOLS (CMIN->CMAX): -abcdefghijklmnopqrstuvwxyz+
(PID.TID 0000.0001) //                  0.0: .
(PID.TID 0000.0001) // RANGE I (Lo:Hi:Step):(    -1:   250:     1)
(PID.TID 0000.0001) // RANGE J (Lo:Hi:Step):(   250:    -1:    -1)
(PID.TID 0000.0001) // RANGE K (Lo:Hi:Step):(   1:   1:   1)
(PID.TID 0000.0001) // =======================================================
(PID.TID 0000.0001) K =   1
(PID.TID 0000.0001) //                I=8       I=18      I=28      I=38      I=48      I=58      I=68      I=78      I=88      I=98      I=108     I=118     I=128     I=138     I=148     I=158     I=168     I=178     I=188     I=198     I=208     I=218     I=228     I=238     I=248
(PID.TID 0000.0001) // |--J--|101234567|901234567|901234567|901234567|901234567|901234567|901234567|901234567|901234567|901234567|901234567|901234567|901234567|901234567|901234567|901234567|901234567|901234567|901234567|901234567|901234567|901234567|901234567|901234567|901234567|90
(PID.TID 0000.0001) //    250 +...+++++++++++++++++++++++++++++++++++++++++++++++++++++++++++++++++++++++++++++++++++++++++++++++++++++++++++++++++++++++++++++++++++++++++++++++++++++++++++++++++++++++++++++++++++++++++++++++++++++++++++++++++++++++++++++++++++++++++++++++++++++...
(PID.TID 0000.0001) //    249 ............................................................................................................................................................................................................................................................
(PID.TID 0000.0001) //    248 ............................................................................................................................................................................................................................................................
(PID.TID 0000.0001) //    247 +...+++++++++++++++++++++++++++++++++++++++++++++++++++++++++++++++++++++++++++++++++++++++++++++++++++++++++++++++++++++++++++++++++++++++++++++++++++++++++++++++++++++++++++++++++++++++++++++++++++++++++++++++++++++++++++++++++++++++++++++++++++++...
(PID.TID 0000.0001) //    246 +...+++++++++++++++++++++++++++++++++++++++++++++++++zzzzzzzzzzzzzzzzzzzzzzzzzzzzzzzzzzzzzzzzzzzzzzzzzzzzzzzzzzzzzzzzzzzzzzzzzzzzzzzzzzzzzzzzzzzzzzzzzzzzzzzzzzzzzzzzzzzzzzzzzzzzzzzzzzzzzzzzzzzzzzzzzzz+++++++++++++++++++++++++++++++++++++++++++++++++...
(PID.TID 0000.0001) //    245 +...+++++++++++++++++++++++++++++++++zzzzzzzzzzzzzzzzzzzzzzzzzzzzzzzzzzzzzzzzzzzzzzzzzzzzzzzzzzzzzzzzzzzzzzzzzzzzzzzzzzzzzzzzzzzzzzzzzzzzzzzzzzzzzzzzzzzzzzzzzzzzzzzzzzzzzzzzzzzzzzzzzzzzzzzzzzzzzzzzzzzzzzzzzzzzzzzzzzz+++++++++++++++++++++++++++++++++...
(PID.TID 0000.0001) //    244 +...+++++++++++++++++++++++++zzzzzzzzzzzzzzzzzzzzzzzzzzzzzzzzzzzzzzzzzzzzzzzzzzzzzzzzzzzzzzzzzzzzzzzzzzzzzzzzzzzyyyyyyyyyyyyyyyyyyyyyyyyyyyyyzzzzzzzzzzzzzzzzzzzzzzzzzzzzzzzzzzzzzzzzzzzzzzzzzzzzzzzzzzzzzzzzzzzzzzzzzzzzzzzzzzz+++++++++++++++++++++++++...
(PID.TID 0000.0001) //    243 +...++++++++++++++++++++zzzzzzzzzzzzzzzzzzzzzzzzzzzzzzzzzzzzzzzzzzzzzzzzzzzzyyyyyyyyyyyyyyyyyyyyyyyyyyyyyyyyyyyyyyyyyyyyyyyyyyyyyyyyyyyyyyyyyyyyyyyyyyyyyyyyyyyyyyyyyyyyyyyyyyyyyzzzzzzzzzzzzzzzzzzzzzzzzzzzzzzzzzzzzzzzzzzzzzzzzzzzz++++++++++++++++++++...
(PID.TID 0000.0001) //    242 +...+++++++++++++++++zzzzzzzzzzzzzzzzzzzzzzzzzzzzzzzzzzzzzzzzyyyyyyyyyyyyyyyyyyyyyyyyyyyyyyyyyyyyyyyyyyyyyyyyyyyyyyyyyyyyyyyyyyyyyyyyyyyyyyyyyyyyyyyyyyyyyyyyyyyyyyyyyyyyyyyyyyyyyyyyyyyyyyyyyyyzzzzzzzzzzzzzzzzzzzzzzzzzzzzzzzzzzzzzzzz+++++++++++++++++...
(PID.TID 0000.0001) //    241 +...++++++++++++++zzzzzzzzzzzzzzzzzzzzzzzzzzzzzzzzzzyyyyyyyyyyyyyyyyyyyyyyyyyyyyyyyyyyyyyyyyyyyyyyyyyyyyyyyyyyyxxxxxxxxxxxxxxxxxxxxxxxxxxxxxxxyyyyyyyyyyyyyyyyyyyyyyyyyyyyyyyyyyyyyyyyyyyyyyyyyyyyyyyyyyyzzzzzzzzzzzzzzzzzzzzzzzzzzzzzzzzzz++++++++++++++...
(PID.TID 0000.0001) //    240 +...++++++++++++zzzzzzzzzzzzzzzzzzzzzzzzzzzzzyyyyyyyyyyyyyyyyyyyyyyyyyyyyyyyyyyyyyyyyxxxxxxxxxxxxxxxxxxxxxxxxxxxxxxxxxxxxxxxxxxxxxxxxxxxxxxxxxxxxxxxxxxxxxxxxxxxxxxxxxxxyyyyyyyyyyyyyyyyyyyyyyyyyyyyyyyyyyyyyyyyzzzzzzzzzzzzzzzzzzzzzzzzzzzzz++++++++++++...
(PID.TID 0000.0001) //    239 +...+++++++++++zzzzzzzzzzzzzzzzzzzzzzzzzyyyyyyyyyyyyyyyyyyyyyyyyyyyyyyyyxxxxxxxxxxxxxxxxxxxxxxxxxxxxxxxxxxxxxxxxxxxxxxxxxxxxxxxxxxxxxxxxxxxxxxxxxxxxxxxxxxxxxxxxxxxxxxxxxxxxxxxxxxxxxyyyyyyyyyyyyyyyyyyyyyyyyyyyyyyyyzzzzzzzzzzzzzzzzzzzzzzzzz+++++++++++...
(PID.TID 0000.0001) //    238 +...+++++++++zzzzzzzzzzzzzzzzzzzzzzzyyyyyyyyyyyyyyyyyyyyyyyyyyyxxxxxxxxxxxxxxxxxxxxxxxxxxxxxxxxxxxxxxxxxxxxxxxxwwwwwwwwwwwwwwwwwwwwwwwwwwwwwwwxxxxxxxxxxxxxxxxxxxxxxxxxxxxxxxxxxxxxxxxxxxxxxxxyyyyyyyyyyyyyyyyyyyyyyyyyyyzzzzzzzzzzzzzzzzzzzzzzz+++++++++...
(PID.TID 0000.0001) //    237 +...++++++++zzzzzzzzzzzzzzzzzzzzzyyyyyyyyyyyyyyyyyyyyyyyyxxxxxxxxxxxxxxxxxxxxxxxxxxxxxxxxxwwwwwwwwwwwwwwwwwwwwwwwwwwwwwwwwwwwwwwwwwwwwwwwwwwwwwwwwwwwwwwwwwwwwwwwwwxxxxxxxxxxxxxxxxxxxxxxxxxxxxxxxxxyyyyyyyyyyyyyyyyyyyyyyyyzzzzzzzzzzzzzzzzzzzzz++++++++...
(PID.TID 0000.0001) //    236 +...++++++++zzzzzzzzzzzzzzzzzzzyyyyyyyyyyyyyyyyyyyyyxxxxxxxxxxxxxxxxxxxxxxxxxxxwwwwwwwwwwwwwwwwwwwwwwwwwwwwwwwwwwwwwwwwwwwwwwwwwwwwwwwwwwwwwwwwwwwwwwwwwwwwwwwwwwwwwwwwwwwwwwwxxxxxxxxxxxxxxxxxxxxxxxxxxxyyyyyyyyyyyyyyyyyyyyyzzzzzzzzzzzzzzzzzzz++++++++...
(PID.TID 0000.0001) //    235 +...+++++++zzzzzzzzzzzzzzzzzzyyyyyyyyyyyyyyyyyyyxxxxxxxxxxxxxxxxxxxxxxxwwwwwwwwwwwwwwwwwwwwwwwwwwwwwwwwwwwwwwwwvvvvvvvvvvvvvvvvvvvvvvvvvvvvvvvwwwwwwwwwwwwwwwwwwwwwwwwwwwwwwwwwwwwwwwwxxxxxxxxxxxxxxxxxxxxxxxyyyyyyyyyyyyyyyyyyyzzzzzzzzzzzzzzzzzz+++++++...
(PID.TID 0000.0001) //    234 +...++++++zzzzzzzzzzzzzzzzzyyyyyyyyyyyyyyyyyxxxxxxxxxxxxxxxxxxxxxwwwwwwwwwwwwwwwwwwwwwwwwwwwwvvvvvvvvvvvvvvvvvvvvvvvvvvvvvvvvvvvvvvvvvvvvvvvvvvvvvvvvvvvvvvvvvvvwwwwwwwwwwwwwwwwwwwwwwwwwwwwxxxxxxxxxxxxxxxxxxxxxyyyyyyyyyyyyyyyyyzzzzzzzzzzzzzzzzz++++++...
(PID.TID 0000.0001) //    233 +...++++++zzzzzzzzzzzzzzzyyyyyyyyyyyyyyyyxxxxxxxxxxxxxxxxxxxwwwwwwwwwwwwwwwwwwwwwwwvvvvvvvvvvvvvvvvvvvvvvvvvvvvvvvvvvvvvvvvvvvvvvvvvvvvvvvvvvvvvvvvvvvvvvvvvvvvvvvvvvvvvvvwwwwwwwwwwwwwwwwwwwwwwwxxxxxxxxxxxxxxxxxxxyyyyyyyyyyyyyyyyzzzzzzzzzzzzzzz++++++...
(PID.TID 0000.0001) //    232 +...+++++zzzzzzzzzzzzzzzyyyyyyyyyyyyyyyxxxxxxxxxxxxxxxxxwwwwwwwwwwwwwwwwwwwwvvvvvvvvvvvvvvvvvvvvvvvvvvvvvvvvvvvvuuuuuuuuuuuuuuuuuuuuuuuuuuuuuvvvvvvvvvvvvvvvvvvvvvvvvvvvvvvvvvvvvwwwwwwwwwwwwwwwwwwwwxxxxxxxxxxxxxxxxxyyyyyyyyyyyyyyyzzzzzzzzzzzzzzz+++++...
(PID.TID 0000.0001) //    231 +...+++++zzzzzzzzzzzzzyyyyyyyyyyyyyyyxxxxxxxxxxxxxxxwwwwwwwwwwwwwwwwwwvvvvvvvvvvvvvvvvvvvvvvvvvvuuuuuuuuuuuuuuuuuuuuuuuuuuuuuuuuuuuuuuuuuuuuuuuuuuuuuuuuuuuuuvvvvvvvvvvvvvvvvvvvvvvvvvvwwwwwwwwwwwwwwwwwwxxxxxxxxxxxxxxxyyyyyyyyyyyyyyyzzzzzzzzzzzzz+++++...
(PID.TID 0000.0001) //    230 +...+++++zzzzzzzzzzzzyyyyyyyyyyyyyyxxxxxxxxxxxxxxwwwwwwwwwwwwwwwwvvvvvvvvvvvvvvvvvvvvvvuuuuuuuuuuuuuuuuuuuuuuuuuuuuuuuuuuuuuuuuuuuuuuuuuuuuuuuuuuuuuuuuuuuuuuuuuuuuuuuvvvvvvvvvvvvvvvvvvvvvvwwwwwwwwwwwwwwwwxxxxxxxxxxxxxxyyyyyyyyyyyyyyzzzzzzzzzzzz+++++...
(PID.TID 0000.0001) //    229 +...++++zzzzzzzzzzzzyyyyyyyyyyyyyxxxxxxxxxxxxxwwwwwwwwwwwwwwwvvvvvvvvvvvvvvvvvvvuuuuuuuuuuuuuuuuuuuuuuuuuuuuuuuuutttttttttttttttttttttttttttuuuuuuuuuuuuuuuuuuuuuuuuuuuuuuuuuvvvvvvvvvvvvvvvvvvvwwwwwwwwwwwwwwwxxxxxxxxxxxxxyyyyyyyyyyyyyzzzzzzzzzzzz++++...
(PID.TID 0000.0001) //    228 +...++++zzzzzzzzzzzyyyyyyyyyyyyxxxxxxxxxxxxxwwwwwwwwwwwwwwvvvvvvvvvvvvvvvvvuuuuuuuuuuuuuuuuuuuuuuutttttttttttttttttttttttttttttttttttttttttttttttttttttttttuuuuuuuuuuuuuuuuuuuuuuuvvvvvvvvvvvvvvvvvwwwwwwwwwwwwwwxxxxxxxxxxxxxyyyyyyyyyyyyzzzzzzzzzzz++++...
(PID.TID 0000.0001) //    227 +...++++zzzzzzzzzzzyyyyyyyyyyyxxxxxxxxxxxxwwwwwwwwwwwwwvvvvvvvvvvvvvvvuuuuuuuuuuuuuuuuuuuutttttttttttttttttttttttttttttttttttttttttttttttttttttttttttttttttttttttttuuuuuuuuuuuuuuuuuuuuvvvvvvvvvvvvvvvwwwwwwwwwwwwwxxxxxxxxxxxxyyyyyyyyyyyzzzzzzzzzzz++++...
(PID.TID 0000.0001) //    226 +...+++zzzzzzzzzzzyyyyyyyyyyyxxxxxxxxxxxwwwwwwwwwwwwvvvvvvvvvvvvvvuuuuuuuuuuuuuuuuutttttttttttttttttttttttttttttttssssssssssssssssssssssssstttttttttttttttttttttttttttttttuuuuuuuuuuuuuuuuuvvvvvvvvvvvvvvwwwwwwwwwwwwxxxxxxxxxxxyyyyyyyyyyyzzzzzzzzzzz+++...
(PID.TID 0000.0001) //    225 +...+++zzzzzzzzzzyyyyyyyyyyyxxxxxxxxxxwwwwwwwwwwwwvvvvvvvvvvvvvuuuuuuuuuuuuuuutttttttttttttttttttttttssssssssssssssssssssssssssssssssssssssssssssssssssstttttttttttttttttttttttuuuuuuuuuuuuuuuvvvvvvvvvvvvvwwwwwwwwwwwwxxxxxxxxxxyyyyyyyyyyyzzzzzzzzzz+++...
(PID.TID 0000.0001) //    224 +...+++zzzzzzzzzzyyyyyyyyyxxxxxxxxxxxwwwwwwwwwwwvvvvvvvvvvvvuuuuuuuuuuuuuuttttttttttttttttttsssssssssssssssssssssssssssssssssssssssssssssssssssssssssssssssssssssttttttttttttttttttuuuuuuuuuuuuuuvvvvvvvvvvvvwwwwwwwwwwwxxxxxxxxxxxyyyyyyyyyzzzzzzzzzz+++...
(PID.TID 0000.0001) //    223 +...+++zzzzzzzzzyyyyyyyyyyxxxxxxxxxwwwwwwwwwwwvvvvvvvvvvvuuuuuuuuuuuuuttttttttttttttttsssssssssssssssssssssssssssssssrrrrrrrrrrrrrrrrrrrsssssssssssssssssssssssssssssssttttttttttttttttuuuuuuuuuuuuuvvvvvvvvvvvwwwwwwwwwwwxxxxxxxxxyyyyyyyyyyzzzzzzzzz+++...
(PID.TID 0000.0001) //    222 +...+++zzzzzzzzzyyyyyyyyyxxxxxxxxxwwwwwwwwwwvvvvvvvvvvvuuuuuuuuuuuuttttttttttttttssssssssssssssssssssssrrrrrrrrrrrrrrrrrrrrrrrrrrrrrrrrrrrrrrrrrrrrrrrssssssssssssssssssssssttttttttttttttuuuuuuuuuuuuvvvvvvvvvvvwwwwwwwwwwxxxxxxxxxyyyyyyyyyzzzzzzzzz+++...
(PID.TID 0000.0001) //    221 +...++zzzzzzzzzyyyyyyyyyxxxxxxxxxwwwwwwwwwvvvvvvvvvvvuuuuuuuuuuutttttttttttttssssssssssssssssssrrrrrrrrrrrrrrrrrrrrrrrrrrrrrrrrrrrrrrrrrrrrrrrrrrrrrrrrrrrrrrrsssssssssssssssssstttttttttttttuuuuuuuuuuuvvvvvvvvvvvwwwwwwwwwxxxxxxxxxyyyyyyyyyzzzzzzzzz++...
(PID.TID 0000.0001) //    220 +...++zzzzzzzzzyyyyyyyyxxxxxxxxxwwwwwwwwwvvvvvvvvvvuuuuuuuuuutttttttttttttsssssssssssssssrrrrrrrrrrrrrrrrrrrrrrrrrrrrrrrqqqqqqqqqqqqqrrrrrrrrrrrrrrrrrrrrrrrrrrrrrrrssssssssssssssstttttttttttttuuuuuuuuuuvvvvvvvvvvwwwwwwwwwxxxxxxxxxyyyyyyyyzzzzzzzzz++...
(PID.TID 0000.0001) //    219 +...++zzzzzzzzyyyyyyyyxxxxxxxxxwwwwwwwwwvvvvvvvvvuuuuuuuuuutttttttttttssssssssssssssrrrrrrrrrrrrrrrrrrrrrqqqqqqqqqqqqqqqqqqqqqqqqqqqqqqqqqqqqqqqqqqqrrrrrrrrrrrrrrrrrrrrrsssssssssssssstttttttttttuuuuuuuuuuvvvvvvvvvwwwwwwwwwxxxxxxxxxyyyyyyyyzzzzzzzz++...
(PID.TID 0000.0001) //    218 +...++zzzzzzzzyyyyyyyyxxxxxxxxwwwwwwwwvvvvvvvvvuuuuuuuuuutttttttttttssssssssssssrrrrrrrrrrrrrrrrrqqqqqqqqqqqqqqqqqqqqqqqqqqqqqqqqqqqqqqqqqqqqqqqqqqqqqqqqqqqrrrrrrrrrrrrrrrrrsssssssssssstttttttttttuuuuuuuuuuvvvvvvvvvwwwwwwwwxxxxxxxxyyyyyyyyzzzzzzzz++...
(PID.TID 0000.0001) //    217 +...++zzzzzzzyyyyyyyyxxxxxxxxwwwwwwwwvvvvvvvvvuuuuuuuuuttttttttttssssssssssssrrrrrrrrrrrrrrrqqqqqqqqqqqqqqqqqqqqqqqqqqqqqqqqqqqqqqqqqqqqqqqqqqqqqqqqqqqqqqqqqqqqqrrrrrrrrrrrrrrrssssssssssssttttttttttuuuuuuuuuvvvvvvvvvwwwwwwwwxxxxxxxxyyyyyyyyzzzzzzz++...
(PID.TID 0000.0001) //    216 +...++zzzzzzzyyyyyyyyxxxxxxxwwwwwwwwvvvvvvvvuuuuuuuuuttttttttttsssssssssssrrrrrrrrrrrrrqqqqqqqqqqqqqqqqqqqqqpppppppppppppppppppppppppppppppppppppqqqqqqqqqqqqqqqqqqqqqrrrrrrrrrrrrrsssssssssssttttttttttuuuuuuuuuvvvvvvvvwwwwwwwwxxxxxxxyyyyyyyyzzzzzzz++...
(PID.TID 0000.0001) //    215 +...++zzzzzzzyyyyyyyxxxxxxxwwwwwwwwvvvvvvvvuuuuuuuuttttttttttssssssssssrrrrrrrrrrrrqqqqqqqqqqqqqqqqqpppppppppppppppppppppppppppppppppppppppppppppppppppppqqqqqqqqqqqqqqqqqrrrrrrrrrrrrssssssssssttttttttttuuuuuuuuvvvvvvvvwwwwwwwwxxxxxxxyyyyyyyzzzzzzz++...
(PID.TID 0000.0001) //    214 +...++zzzzzzyyyyyyyyxxxxxxxwwwwwwwvvvvvvvvuuuuuuuutttttttttsssssssssrrrrrrrrrrrrqqqqqqqqqqqqqqpppppppppppppppppppppppppppppppppppppppppppppppppppppppppppppppppqqqqqqqqqqqqqqrrrrrrrrrrrrssssssssstttttttttuuuuuuuuvvvvvvvvwwwwwwwxxxxxxxyyyyyyyyzzzzzz++...
(PID.TID 0000.0001) //    213 +...+zzzzzzzyyyyyyyxxxxxxxwwwwwwwvvvvvvvvuuuuuuutttttttttsssssssssrrrrrrrrrrrqqqqqqqqqqqqqppppppppppppppppppppoooooooooooooooooooooooooooooooooppppppppppppppppppppqqqqqqqqqqqqqrrrrrrrrrrrssssssssstttttttttuuuuuuuvvvvvvvvwwwwwwwxxxxxxxyyyyyyyzzzzzzz+...
(PID.TID 0000.0001) //    212 +...+zzzzzzzyyyyyyyxxxxxxwwwwwwwvvvvvvvvuuuuuuuttttttttsssssssssrrrrrrrrrrqqqqqqqqqqqqppppppppppppppppoooooooooooooooooooooooooooooooooooooooooooooooooppppppppppppppppqqqqqqqqqqqqrrrrrrrrrrsssssssssttttttttuuuuuuuvvvvvvvvwwwwwwwxxxxxxyyyyyyyzzzzzzz+...
(PID.TID 0000.0001) //    211 +...+zzzzzzzyyyyyyxxxxxxxwwwwwwwvvvvvvvuuuuuuuttttttttssssssssrrrrrrrrrqqqqqqqqqqqpppppppppppppppooooooooooooooooooooooooooooooooooooooooooooooooooooooooooopppppppppppppppqqqqqqqqqqqrrrrrrrrrssssssssttttttttuuuuuuuvvvvvvvwwwwwwwxxxxxxxyyyyyyzzzzzzz+...
(PID.TID 0000.0001) //    210 +...+zzzzzzyyyyyyyxxxxxxwwwwwwwvvvvvvvuuuuuuutttttttssssssssrrrrrrrrrqqqqqqqqqqpppppppppppppoooooooooooooooooooooonnnnnnnnnnnnnnnnnnnnnnnnnoooooooooooooooooooooopppppppppppppqqqqqqqqqqrrrrrrrrrsssssssstttttttuuuuuuuvvvvvvvwwwwwwwxxxxxxyyyyyyyzzzzzz+...
(PID.TID 0000.0001) //    209 +...+zzzzzzyyyyyyxxxxxxxwwwwwwvvvvvvvuuuuuuutttttttssssssssrrrrrrrrqqqqqqqqqqpppppppppppooooooooooooooooonnnnnnnnnnnnnnnnnnnnnnnnnnnnnnnnnnnnnnnnnnnooooooooooooooooopppppppppppqqqqqqqqqqrrrrrrrrsssssssstttttttuuuuuuuvvvvvvvwwwwwwxxxxxxxyyyyyyzzzzzz+...
(PID.TID 0000.0001) //    208 +...+zzzzzzyyyyyyxxxxxxwwwwwwvvvvvvvuuuuuuutttttttsssssssrrrrrrrrqqqqqqqqqpppppppppppoooooooooooooonnnnnnnnnnnnnnnnnnnnnnnnnnnnnnnnnnnnnnnnnnnnnnnnnnnnnnnoooooooooooooopppppppppppqqqqqqqqqrrrrrrrrssssssstttttttuuuuuuuvvvvvvvwwwwwwxxxxxxyyyyyyzzzzzz+...
(PID.TID 0000.0001) //    207 +...+zzzzzzyyyyyyxxxxxxwwwwwwvvvvvvuuuuuuuttttttssssssssrrrrrrrqqqqqqqqqppppppppppooooooooooooonnnnnnnnnnnnnnnnnnnnnnnnnmmmmmmmmmmmmmnnnnnnnnnnnnnnnnnnnnnnnnnoooooooooooooppppppppppqqqqqqqqqrrrrrrrssssssssttttttuuuuuuuvvvvvvwwwwwwxxxxxxyyyyyyzzzzzz+...
(PID.TID 0000.0001) //    206 +...+zzzzzzyyyyyxxxxxxwwwwwwvvvvvvuuuuuuuttttttsssssssrrrrrrrrqqqqqqqqpppppppppoooooooooooonnnnnnnnnnnnnnnnnnmmmmmmmmmmmmmmmmmmmmmmmmmmmmmmmmmmmnnnnnnnnnnnnnnnnnnoooooooooooopppppppppqqqqqqqqrrrrrrrrsssssssttttttuuuuuuuvvvvvvwwwwwwxxxxxxyyyyyzzzzzz+...
(PID.TID 0000.0001) //    205 +...+zzzzzyyyyyyxxxxxxwwwwwwvvvvvvuuuuuuttttttsssssssrrrrrrrqqqqqqqqpppppppppooooooooooonnnnnnnnnnnnnnmmmmmmmmmmmmmmmmmmmmmmmmmmmmmmmmmmmmmmmmmmmmmmmmmnnnnnnnnnnnnnnooooooooooopppppppppqqqqqqqqrrrrrrrsssssssttttttuuuuuuvvvvvvwwwwwwxxxxxxyyyyyyzzzzz+...
(PID.TID 0000.0001) //    204 +...+zzzzzyyyyyyxxxxxwwwwwwvvvvvvuuuuuuttttttsssssssrrrrrrrqqqqqqqpppppppppoooooooooonnnnnnnnnnnnnmmmmmmmmmmmmmmmmmmmmmmmmmmmmmmmmmmmmmmmmmmmmmmmmmmmmmmmmmnnnnnnnnnnnnnoooooooooopppppppppqqqqqqqrrrrrrrsssssssttttttuuuuuuvvvvvvwwwwwwxxxxxyyyyyyzzzzz+...
(PID.TID 0000.0001) //    203 +...+zzzzzyyyyyyxxxxxwwwwwwvvvvvuuuuuuttttttsssssssrrrrrrqqqqqqqqppppppppooooooooonnnnnnnnnnnnmmmmmmmmmmmmmmmmmmmlllllllllllllllllllllllllllmmmmmmmmmmmmmmmmmmmnnnnnnnnnnnnoooooooooppppppppqqqqqqqqrrrrrrsssssssttttttuuuuuuvvvvvwwwwwwxxxxxyyyyyyzzzzz+...
(PID.TID 0000.0001) //    202 +...+zzzzzyyyyyxxxxxxwwwwwvvvvvvuuuuuttttttsssssssrrrrrrqqqqqqqppppppppooooooooonnnnnnnnnnmmmmmmmmmmmmmmmmlllllllllllllllllllllllllllllllllllllllllmmmmmmmmmmmmmmmmnnnnnnnnnnoooooooooppppppppqqqqqqqrrrrrrsssssssttttttuuuuuvvvvvvwwwwwxxxxxxyyyyyzzzzz+...
(PID.TID 0000.0001) //    201 +...+zzzzzyyyyyxxxxxwwwwwwvvvvvuuuuuuttttttssssssrrrrrrqqqqqqqpppppppooooooooonnnnnnnnnnmmmmmmmmmmmmmlllllllllllllllllllllllllllllllllllllllllllllllllllmmmmmmmmmmmmmnnnnnnnnnnooooooooopppppppqqqqqqqrrrrrrssssssttttttuuuuuuvvvvvwwwwwwxxxxxyyyyyzzzzz+...
(PID.TID 0000.0001) //    200 +...+zzzzzyyyyyxxxxxwwwwwvvvvvvuuuuuttttttssssssrrrrrrqqqqqqqpppppppoooooooonnnnnnnnnmmmmmmmmmmmmllllllllllllllllllllllkkkkkkkkkkkkkkkllllllllllllllllllllllmmmmmmmmmmmmnnnnnnnnnoooooooopppppppqqqqqqqrrrrrrssssssttttttuuuuuvvvvvvwwwwwxxxxxyyyyyzzzzz+...
(PID.TID 0000.0001) //    199 +...+zzzzzyyyyyxxxxxwwwwwvvvvvuuuuuttttttssssssrrrrrrqqqqqqpppppppoooooooonnnnnnnnnmmmmmmmmmmlllllllllllllllllkkkkkkkkkkkkkkkkkkkkkkkkkkkkkkkkklllllllllllllllllmmmmmmmmmmnnnnnnnnnoooooooopppppppqqqqqqrrrrrrssssssttttttuuuuuvvvvvwwwwwxxxxxyyyyyzzzzz+...
(PID.TID 0000.0001) //    198 +...+zzzzyyyyyxxxxxwwwwwvvvvvvuuuuutttttssssssrrrrrrqqqqqqpppppppooooooonnnnnnnnmmmmmmmmmmllllllllllllllkkkkkkkkkkkkkkkkkkkkkkkkkkkkkkkkkkkkkkkkkkkkkllllllllllllllmmmmmmmmmmnnnnnnnnooooooopppppppqqqqqqrrrrrrsssssstttttuuuuuvvvvvvwwwwwxxxxxyyyyyzzzz+...
(PID.TID 0000.0001) //    197 z...zzzzzyyyyyxxxxxwwwwwvvvvvuuuuuttttttsssssrrrrrrqqqqqqppppppoooooooonnnnnnnmmmmmmmmmmllllllllllllkkkkkkkkkkkkkkkkkkkkkkkkkkkkkkkkkkkkkkkkkkkkkkkkkkkkkllllllllllllmmmmmmmmmmnnnnnnnooooooooppppppqqqqqqrrrrrrsssssttttttuuuuuvvvvvwwwwwxxxxxyyyyyzzzzz...
(PID.TID 0000.0001) //    196 z...zzzzzyyyyyxxxxxwwwwwvvvvvuuuuutttttsssssrrrrrrqqqqqqppppppooooooonnnnnnnnmmmmmmmmlllllllllllkkkkkkkkkkkkkkkkkkkjjjjjjjjjjjjjjjjjjjjjjjkkkkkkkkkkkkkkkkkkklllllllllllmmmmmmmmnnnnnnnnoooooooppppppqqqqqqrrrrrrssssstttttuuuuuvvvvvwwwwwxxxxxyyyyyzzzzz...
(PID.TID 0000.0001) //    195 z...zzzzzyyyyyxxxxxwwwwvvvvvuuuuutttttssssssrrrrrqqqqqqppppppooooooonnnnnnnmmmmmmmmllllllllllkkkkkkkkkkkkkkkjjjjjjjjjjjjjjjjjjjjjjjjjjjjjjjjjjjjjkkkkkkkkkkkkkkkllllllllllmmmmmmmmnnnnnnnoooooooppppppqqqqqqrrrrrsssssstttttuuuuuvvvvvwwwwxxxxxyyyyyzzzzz...
(PID.TID 0000.0001) //    194 z...zzzzzyyyyyxxxxwwwwwvvvvvuuuuutttttsssssrrrrrqqqqqqppppppoooooonnnnnnnmmmmmmmmllllllllllkkkkkkkkkkkkkjjjjjjjjjjjjjjjjjjjjjjjjjjjjjjjjjjjjjjjjjjjjjkkkkkkkkkkkkkllllllllllmmmmmmmmnnnnnnnooooooppppppqqqqqqrrrrrssssstttttuuuuuvvvvvwwwwwxxxxyyyyyzzzzz...
(PID.TID 0000.0001) //    193 z...zzzzzyyyyxxxxxwwwwwvvvvuuuuutttttsssssrrrrrqqqqqqppppppoooooonnnnnnnmmmmmmmlllllllllkkkkkkkkkkkkjjjjjjjjjjjjjjjjjjjjjjjjjjjjjjjjjjjjjjjjjjjjjjjjjjjjjkkkkkkkkkkkklllllllllmmmmmmmnnnnnnnooooooppppppqqqqqqrrrrrssssstttttuuuuuvvvvwwwwwxxxxxyyyyzzzzz...
(PID.TID 0000.0001) //    192 z...zzzzzyyyyxxxxxwwwwvvvvvuuuuutttttsssssrrrrrqqqqqppppppoooooonnnnnnmmmmmmmmllllllllkkkkkkkkkkkjjjjjjjjjjjjjjjjjiiiiiiiiiiiiiiiiiiiiiiiiijjjjjjjjjjjjjjjjjkkkkkkkkkkkllllllllmmmmmmmmnnnnnnooooooppppppqqqqqrrrrrssssstttttuuuuuvvvvvwwwwxxxxxyyyyzzzzz...
(PID.TID 0000.0001) //    191 z...zzzzzyyyyxxxxxwwwwvvvvvuuuutttttsssssrrrrrqqqqqppppppoooooonnnnnnmmmmmmmllllllllkkkkkkkkkkjjjjjjjjjjjjjjiiiiiiiiiiiiiiiiiiiiiiiiiiiiiiiiiiiiijjjjjjjjjjjjjjkkkkkkkkkkllllllllmmmmmmmnnnnnnooooooppppppqqqqqrrrrrssssstttttuuuuvvvvvwwwwxxxxxyyyyzzzzz...
(PID.TID 0000.0001) //    190 z...zzzzzyyyyxxxxwwwwwvvvvuuuuutttttssssrrrrrqqqqqqpppppoooooonnnnnnmmmmmmmlllllllkkkkkkkkkjjjjjjjjjjjjjiiiiiiiiiiiiiiiiiiiiiiiiiiiiiiiiiiiiiiiiiiiiijjjjjjjjjjjjjkkkkkkkkklllllllmmmmmmmnnnnnnoooooopppppqqqqqqrrrrrsssstttttuuuuuvvvvwwwwwxxxxyyyyzzzzz...
(PID.TID 0000.0001) //    189 z...zzzzyyyyyxxxxwwwwvvvvvuuuutttttsssssrrrrrqqqqqpppppoooooonnnnnnmmmmmmllllllllkkkkkkkkjjjjjjjjjjjiiiiiiiiiiiiiiiiiiiiiiiiiiiiiiiiiiiiiiiiiiiiiiiiiiiiijjjjjjjjjjjkkkkkkkkllllllllmmmmmmnnnnnnoooooopppppqqqqqrrrrrssssstttttuuuuvvvvvwwwwxxxxyyyyyzzzz...
(PID.TID 0000.0001) //    188 z...zzzzyyyyyxxxxwwwwvvvvvuuuutttttssssrrrrrqqqqqpppppoooooonnnnnnmmmmmmlllllllkkkkkkkkjjjjjjjjjjiiiiiiiiiiiiiiiiihhhhhhhhhhhhhhhhhhhhhhhhhiiiiiiiiiiiiiiiiijjjjjjjjjjkkkkkkkklllllllmmmmmmnnnnnnoooooopppppqqqqqrrrrrsssstttttuuuuvvvvvwwwwxxxxyyyyyzzzz...
(PID.TID 0000.0001) //    187 z...zzzzyyyyxxxxxwwwwvvvvuuuuuttttsssssrrrrqqqqqpppppoooooonnnnnnmmmmmmlllllllkkkkkkkjjjjjjjjjjiiiiiiiiiiiiihhhhhhhhhhhhhhhhhhhhhhhhhhhhhhhhhhhhhiiiiiiiiiiiiijjjjjjjjjjkkkkkkklllllllmmmmmmnnnnnnoooooopppppqqqqqrrrrsssssttttuuuuuvvvvwwwwxxxxxyyyyzzzz...
(PID.TID 0000.0001) //    186 z...zzzzyyyyxxxxxwwwwvvvvuuuutttttssssrrrrrqqqqqpppppooooonnnnnnmmmmmmllllllkkkkkkkkjjjjjjjjiiiiiiiiiiiiihhhhhhhhhhhhhhhhhhhhhhhhhhhhhhhhhhhhhhhhhhhiiiiiiiiiiiiijjjjjjjjkkkkkkkkllllllmmmmmmnnnnnnooooopppppqqqqqrrrrrsssstttttuuuuvvvvwwwwxxxxxyyyyzzzz...
(PID.TID 0000.0001) //    185 z...zzzzyyyyxxxxwwwwvvvvvuuuuttttsssssrrrrqqqqqpppppooooonnnnnnmmmmmlllllllkkkkkkkjjjjjjjjiiiiiiiiiiihhhhhhhhhhhhhhhhhhhhhhhhhhhhhhhhhhhhhhhhhhhhhhhhhhhiiiiiiiiiiijjjjjjjjkkkkkkklllllllmmmmmnnnnnnooooopppppqqqqqrrrrsssssttttuuuuvvvvvwwwwxxxxyyyyzzzz...
(PID.TID 0000.0001) //    184 z...zzzzyyyyxxxxwwwwvvvvuuuuuttttssssrrrrrqqqqpppppooooonnnnnnmmmmmlllllllkkkkkkjjjjjjjjiiiiiiiiiiihhhhhhhhhhhhhhhhggggggggggggggggggggggghhhhhhhhhhhhhhhhiiiiiiiiiiijjjjjjjjkkkkkklllllllmmmmmnnnnnnooooopppppqqqqrrrrrssssttttuuuuuvvvvwwwwxxxxyyyyzzzz...
(PID.TID 0000.0001) //    183 z...zzzzyyyyxxxxwwwwvvvvuuuutttttssssrrrrqqqqqpppppooooonnnnnmmmmmllllllkkkkkkkjjjjjjjjiiiiiiiiihhhhhhhhhhhhhhggggggggggggggggggggggggggggggggghhhhhhhhhhhhhhiiiiiiiiijjjjjjjjkkkkkkkllllllmmmmmnnnnnooooopppppqqqqqrrrrsssstttttuuuuvvvvwwwwxxxxyyyyzzzz...
(PID.TID 0000.0001) //    182 z...zzzzyyyyxxxxwwwwvvvvuuuuttttssssrrrrrqqqqpppppooooonnnnnmmmmmllllllkkkkkkkjjjjjjjiiiiiiiiihhhhhhhhhhhhggggggggggggggggggggggggggggggggggggggggghhhhhhhhhhhhiiiiiiiiijjjjjjjkkkkkkkllllllmmmmmnnnnnooooopppppqqqqrrrrrssssttttuuuuvvvvwwwwxxxxyyyyzzzz...
(PID.TID 0000.0001) //    181 z...zzzzyyyyxxxxwwwwvvvvuuuuttttssssrrrrqqqqqppppooooonnnnnmmmmmmlllllkkkkkkkjjjjjjjiiiiiiiihhhhhhhhhhhggggggggggggggggggggggggggggggggggggggggggggggghhhhhhhhhhhiiiiiiiijjjjjjjkkkkkkklllllmmmmmmnnnnnoooooppppqqqqqrrrrssssttttuuuuvvvvwwwwxxxxyyyyzzzz...
(PID.TID 0000.0001) //    180 z...zzzzyyyyxxxxwwwvvvvuuuuttttsssssrrrrqqqqpppppooooonnnnmmmmmmlllllkkkkkkjjjjjjjiiiiiiiihhhhhhhhhhggggggggggggggggggfffffffffffffffffgggggggggggggggggghhhhhhhhhhiiiiiiiijjjjjjjkkkkkklllllmmmmmmnnnnooooopppppqqqqrrrrsssssttttuuuuvvvvwwwxxxxyyyyzzzz...
(PID.TID 0000.0001) //    179 z...zzzzyyyyxxxwwwwvvvvuuuuttttssssrrrrqqqqqppppooooonnnnnmmmmmlllllkkkkkkjjjjjjjiiiiiiihhhhhhhhhhggggggggggggggfffffffffffffffffffffffffffffgggggggggggggghhhhhhhhhhiiiiiiijjjjjjjkkkkkklllllmmmmmnnnnnoooooppppqqqqqrrrrssssttttuuuuvvvvwwwwxxxyyyyzzzz...
(PID.TID 0000.0001) //    178 z...zzzzyyyxxxxwwwwvvvvuuuuttttssssrrrrqqqqpppppoooonnnnnmmmmmlllllkkkkkkjjjjjjjiiiiiiihhhhhhhhhggggggggggggfffffffffffffffffffffffffffffffffffffgggggggggggghhhhhhhhhiiiiiiijjjjjjjkkkkkklllllmmmmmnnnnnoooopppppqqqqrrrrssssttttuuuuvvvvwwwwxxxxyyyzzzz...
(PID.TID 0000.0001) //    177 z...zzzzyyyxxxxwwwwvvvvuuuuttttssssrrrrqqqqppppooooonnnnmmmmmllllllkkkkkjjjjjjiiiiiiihhhhhhhhhgggggggggggfffffffffffffffffffffffffffffffffffffffffffggggggggggghhhhhhhhhiiiiiiijjjjjjkkkkkllllllmmmmmnnnnoooooppppqqqqrrrrssssttttuuuuvvvvwwwwxxxxyyyzzzz...
(PID.TID 0000.0001) //    176 z...zzzzyyyxxxxwwwwvvvvuuuttttssssrrrrqqqqpppppoooonnnnnmmmmmlllllkkkkkjjjjjjiiiiiiihhhhhhhhggggggggggfffffffffffffffffffffffffffffffffffffffffffffffffgggggggggghhhhhhhhiiiiiiijjjjjjkkkkklllllmmmmmnnnnnoooopppppqqqqrrrrssssttttuuuvvvvwwwwxxxxyyyzzzz...
(PID.TID 0000.0001) //    175 z...zzzzyyyxxxxwwwwvvvuuuuttttssssrrrrqqqqppppooooonnnnmmmmmlllllkkkkkjjjjjjiiiiiiihhhhhhhggggggggggffffffffffffffffeeeeeeeeeeeeeeeeeeeeeffffffffffffffffgggggggggghhhhhhhiiiiiiijjjjjjkkkkklllllmmmmmnnnnoooooppppqqqqrrrrssssttttuuuuvvvwwwwxxxxyyyzzzz...
(PID.TID 0000.0001) //    174 z...zzzyyyyxxxxwwwvvvvuuuuttttssssrrrrqqqqppppoooonnnnnmmmmlllllkkkkkkjjjjjiiiiiiihhhhhhhgggggggggffffffffffffffeeeeeeeeeeeeeeeeeeeeeeeeeeeeeffffffffffffffggggggggghhhhhhhiiiiiiijjjjjkkkkkklllllmmmmnnnnnooooppppqqqqrrrrssssttttuuuuvvvvwwwxxxxyyyyzzz...
(PID.TID 0000.0001) //    173 z...zzzyyyyxxxxwwwvvvvuuuutttssssrrrrqqqqppppooooonnnnmmmmmlllllkkkkkjjjjjiiiiiiihhhhhhhggggggggffffffffffffeeeeeeeeeeeeeeeeeeeeeeeeeeeeeeeeeeeeeffffffffffffgggggggghhhhhhhiiiiiiijjjjjkkkkklllllmmmmmnnnnoooooppppqqqqrrrrsssstttuuuuvvvvwwwxxxxyyyyzzz...
(PID.TID 0000.0001) //    172 z...zzzyyyyxxxxwwwvvvvuuuttttssssrrrrqqqqppppoooonnnnmmmmmlllllkkkkkjjjjjiiiiiihhhhhhhggggggggfffffffffffeeeeeeeeeeeeeeeeeeeeeeeeeeeeeeeeeeeeeeeeeeefffffffffffgggggggghhhhhhhiiiiiijjjjjkkkkklllllmmmmmnnnnooooppppqqqqrrrrssssttttuuuvvvvwwwxxxxyyyyzzz...
(PID.TID 0000.0001) //    171 z...zzzyyyyxxxwwwwvvvvuuuttttssssrrrrqqqppppooooonnnnmmmmlllllkkkkkjjjjjjiiiiihhhhhhhggggggggffffffffffeeeeeeeeeeeeeeeeeeeeeeeeeeeeeeeeeeeeeeeeeeeeeeeffffffffffgggggggghhhhhhhiiiiijjjjjjkkkkklllllmmmmnnnnoooooppppqqqrrrrssssttttuuuvvvvwwwwxxxyyyyzzz...
(PID.TID 0000.0001) //    170 z...zzzyyyyxxxwwwwvvvuuuuttttsssrrrrqqqqppppoooonnnnmmmmmlllllkkkkjjjjjjiiiiiihhhhhhgggggggffffffffffeeeeeeeeeeeeeeeedddddddddddddddddddeeeeeeeeeeeeeeeeffffffffffggggggghhhhhhiiiiiijjjjjjkkkklllllmmmmmnnnnooooppppqqqqrrrrsssttttuuuuvvvwwwwxxxyyyyzzz...
(PID.TID 0000.0001) //    169 z...zzzyyyyxxxwwwwvvvuuuutttssssrrrrqqqqppppoooonnnnmmmmlllllkkkkkjjjjjiiiiiihhhhhhgggggggfffffffffeeeeeeeeeeeeeedddddddddddddddddddddddddddeeeeeeeeeeeeeefffffffffggggggghhhhhhiiiiiijjjjjkkkkklllllmmmmnnnnooooppppqqqqrrrrsssstttuuuuvvvwwwwxxxyyyyzzz...
(PID.TID 0000.0001) //    168 z...zzzyyyyxxxwwwwvvvuuuutttssssrrrrqqqppppoooonnnnnmmmmllllkkkkkjjjjjiiiiiihhhhhhgggggggffffffffeeeeeeeeeeeedddddddddddddddddddddddddddddddddddeeeeeeeeeeeeffffffffggggggghhhhhhiiiiiijjjjjkkkkkllllmmmmnnnnnooooppppqqqrrrrsssstttuuuuvvvwwwwxxxyyyyzzz...
(PID.TID 0000.0001) //    167 z...zzzyyyyxxxwwwvvvvuuuttttssssrrrqqqqppppoooonnnnmmmmlllllkkkkkjjjjjiiiiihhhhhhgggggggffffffffeeeeeeeeeeedddddddddddddddddddddddddddddddddddddddeeeeeeeeeeeffffffffggggggghhhhhhiiiiijjjjjkkkkklllllmmmmnnnnooooppppqqqqrrrssssttttuuuvvvvwwwxxxyyyyzzz...
(PID.TID 0000.0001) //    166 z...zzzyyyyxxxwwwvvvvuuuttttsssrrrrqqqqppppoooonnnnmmmmllllkkkkkjjjjjiiiiihhhhhhgggggggfffffffeeeeeeeeeeedddddddddddddddddddddddddddddddddddddddddddeeeeeeeeeeefffffffggggggghhhhhhiiiiijjjjjkkkkkllllmmmmnnnnooooppppqqqqrrrrsssttttuuuvvvvwwwxxxyyyyzzz...
(PID.TID 0000.0001) //    165 z...zzzyyyxxxxwwwvvvvuuuttttsssrrrrqqqqpppoooonnnnmmmmlllllkkkkjjjjjiiiiihhhhhhgggggggfffffffeeeeeeeeeeddddddddddddddddddddcccccccddddddddddddddddddddeeeeeeeeeefffffffggggggghhhhhhiiiiijjjjjkkkklllllmmmmnnnnoooopppqqqqrrrrsssttttuuuvvvvwwwxxxxyyyzzz...
(PID.TID 0000.0001) //    164 z...zzzyyyxxxxwwwvvvvuuutttssssrrrrqqqppppoooonnnnmmmmllllkkkkkjjjjjiiiiihhhhhgggggggfffffffeeeeeeeeedddddddddddddddcccccccccccccccccccccdddddddddddddddeeeeeeeeefffffffggggggghhhhhiiiiijjjjjkkkkkllllmmmmnnnnooooppppqqqrrrrsssstttuuuvvvvwwwxxxxyyyzzz...
(PID.TID 0000.0001) //    163 z...zzzyyyxxxxwwwvvvuuuutttssssrrrqqqqppppoooonnnnmmmmllllkkkkjjjjjiiiiihhhhhhggggggfffffffeeeeeeeedddddddddddddcccccccccccccccccccccccccccccdddddddddddddeeeeeeeefffffffgggggghhhhhhiiiiijjjjjkkkkllllmmmmnnnnooooppppqqqqrrrsssstttuuuuvvvwwwxxxxyyyzzz...
(PID.TID 0000.0001) //    162 z...zzzyyyxxxxwwwvvvuuuutttssssrrrqqqqpppoooonnnnmmmmllllkkkkkjjjjiiiiihhhhhhggggggfffffffeeeeeeeeddddddddddddcccccccccccccccccccccccccccccccccddddddddddddeeeeeeeefffffffgggggghhhhhhiiiiijjjjkkkkkllllmmmmnnnnoooopppqqqqrrrsssstttuuuuvvvwwwxxxxyyyzzz...
(PID.TID 0000.0001) //    161 z...zzzyyyxxxxwwwvvvuuuutttsssrrrrqqqqpppoooonnnnmmmmllllkkkkjjjjjiiiiihhhhhggggggfffffffeeeeeeeeddddddddddcccccccccccccccccccccccccccccccccccccccddddddddddeeeeeeeefffffffgggggghhhhhiiiiijjjjjkkkkllllmmmmnnnnoooopppqqqqrrrrssstttuuuuvvvwwwxxxxyyyzzz...
(PID.TID 0000.0001) //    160 z...zzzyyyxxxwwwwvvvuuuttttsssrrrrqqqppppoooonnnmmmmlllllkkkkjjjjiiiiihhhhhggggggfffffffeeeeeeedddddddddddcccccccccccccccccccccccccccccccccccccccccdddddddddddeeeeeeefffffffgggggghhhhhiiiiijjjjkkkklllllmmmmnnnooooppppqqqrrrrsssttttuuuvvvwwwwxxxyyyzzz...
(PID.TID 0000.0001) //    159 z...zzzyyyxxxwwwwvvvuuuttttsssrrrrqqqppppooonnnnmmmmllllkkkkjjjjjiiiiihhhhhgggggfffffffeeeeeeeddddddddddcccccccccccccccccccccccccccccccccccccccccccccddddddddddeeeeeeefffffffggggghhhhhiiiiijjjjjkkkkllllmmmmnnnnoooppppqqqrrrrsssttttuuuvvvwwwwxxxyyyzzz...
(PID.TID 0000.0001) //    158 z...zzzyyyxxxwwwwvvvuuutttssssrrrqqqqpppoooonnnnmmmmllllkkkkjjjjiiiiihhhhhggggggffffffeeeeeeedddddddddcccccccccccccccccbbbbbbbbbbbbbbbcccccccccccccccccdddddddddeeeeeeeffffffgggggghhhhhiiiiijjjjkkkkllllmmmmnnnnoooopppqqqqrrrsssstttuuuvvvwwwwxxxyyyzzz...
(PID.TID 0000.0001) //    157 z...zzzyyyxxxwwwvvvvuuutttssssrrrqqqqpppoooonnnnmmmllllkkkkkjjjjiiiiihhhhhgggggffffffeeeeeeedddddddddccccccccccccccbbbbbbbbbbbbbbbbbbbbbbbccccccccccccccdddddddddeeeeeeeffffffggggghhhhhiiiiijjjjkkkkkllllmmmnnnnoooopppqqqqrrrsssstttuuuvvvvwwwxxxyyyzzz...
(PID.TID 0000.0001) //    156 z...zzzyyyxxxwwwvvvvuuutttssssrrrqqqppppoooonnnmmmmllllkkkkjjjjjiiiihhhhhgggggffffffeeeeeeedddddddddccccccccccccbbbbbbbbbbbbbbbbbbbbbbbbbbbbbccccccccccccdddddddddeeeeeeeffffffggggghhhhhiiiijjjjjkkkkllllmmmmnnnooooppppqqqrrrsssstttuuuvvvvwwwxxxyyyzzz...
(PID.TID 0000.0001) //    155 z...zzzyyyxxxwwwvvvvuuutttsssrrrrqqqppppooonnnnmmmmllllkkkkjjjjiiiiihhhhhgggggffffffeeeeeeddddddddccccccccccccbbbbbbbbbbbbbbbbbbbbbbbbbbbbbbbbbccccccccccccddddddddeeeeeeffffffggggghhhhhiiiiijjjjkkkkllllmmmmnnnnoooppppqqqrrrrssstttuuuvvvvwwwxxxyyyzzz...
(PID.TID 0000.0001) //    154 z...zzzyyyxxxwwwvvvuuuutttsssrrrrqqqppppooonnnnmmmmlllkkkkkjjjjiiiihhhhhgggggffffffeeeeeeedddddddcccccccccccbbbbbbbbbbbbbbbbbbbbbbbbbbbbbbbbbbbbbcccccccccccdddddddeeeeeeeffffffggggghhhhhiiiijjjjkkkkklllmmmmnnnnoooppppqqqrrrrssstttuuuuvvvwwwxxxyyyzzz...
(PID.TID 0000.0001) //    153 z...zzzyyyxxxwwwvvvuuuutttsssrrrqqqqpppoooonnnnmmmllllkkkkjjjjiiiiihhhhhgggggfffffeeeeeeedddddddcccccccccccbbbbbbbbbbbbbbbbbbbbbbbbbbbbbbbbbbbbbbbcccccccccccdddddddeeeeeeefffffggggghhhhhiiiiijjjjkkkkllllmmmnnnnoooopppqqqqrrrssstttuuuuvvvwwwxxxyyyzzz...
(PID.TID 0000.0001) //    152 z...zzzyyyxxxwwwvvvuuuttttsssrrrqqqqpppoooonnnmmmmllllkkkkjjjjiiiiihhhhgggggffffffeeeeeedddddddccccccccccbbbbbbbbbbbbbbbbbbbbbbbbbbbbbbbbbbbbbbbbbbbccccccccccdddddddeeeeeeffffffggggghhhhiiiiijjjjkkkkllllmmmmnnnoooopppqqqqrrrsssttttuuuvvvwwwxxxyyyzzz...
(PID.TID 0000.0001) //    151 z...zzzyyyxxxwwwvvvuuuttttsssrrrqqqqpppooonnnnmmmmllllkkkkjjjjiiiihhhhhgggggfffffeeeeeeddddddddcccccccccbbbbbbbbbbbbbbbbbbbbbbbbbbbbbbbbbbbbbbbbbbbbbcccccccccddddddddeeeeeefffffggggghhhhhiiiijjjjkkkkllllmmmmnnnnooopppqqqqrrrsssttttuuuvvvwwwxxxyyyzzz...
(PID.TID 0000.0001) //    150 z...zzzyyyxxxwwwvvvuuuttttsssrrrqqqppppooonnnnmmmmlllkkkkjjjjiiiiihhhhgggggffffffeeeeeedddddddcccccccccbbbbbbbbbbbbbbbbaaaaaaaaaaaaaaabbbbbbbbbbbbbbbbcccccccccdddddddeeeeeeffffffggggghhhhiiiiijjjjkkkklllmmmmnnnnoooppppqqqrrrsssttttuuuvvvwwwxxxyyyzzz...
(PID.TID 0000.0001) //    149 z...zzzyyyxxxwwwvvvuuutttssssrrrqqqppppooonnnnmmmllllkkkkjjjjiiiihhhhhgggggfffffeeeeeedddddddcccccccccbbbbbbbbbbbbbbaaaaaaaaaaaaaaaaaaaaabbbbbbbbbbbbbbcccccccccdddddddeeeeeefffffggggghhhhhiiiijjjjkkkkllllmmmnnnnoooppppqqqrrrsssstttuuuvvvwwwxxxyyyzzz...
(PID.TID 0000.0001) //    148 z...zzzyyyxxxwwwvvvuuutttssssrrrqqqpppoooonnnmmmmllllkkkkjjjjiiiihhhhhggggffffffeeeeeeddddddcccccccccbbbbbbbbbbbbbaaaaaaaaaaaaaaaaaaaaaaaaabbbbbbbbbbbbbcccccccccddddddeeeeeeffffffgggghhhhhiiiijjjjkkkkllllmmmmnnnoooopppqqqrrrsssstttuuuvvvwwwxxxyyyzzz...
(PID.TID 0000.0001) //    147 z...zzzyyyxxxwwwvvvuuutttsssrrrrqqqpppoooonnnmmmmllllkkkkjjjjiiiihhhhgggggfffffeeeeeedddddddccccccccbbbbbbbbbbbbaaaaaaaaaaaaaaaaaaaaaaaaaaaaabbbbbbbbbbbbccccccccdddddddeeeeeefffffggggghhhhiiiijjjjkkkkllllmmmmnnnoooopppqqqrrrrssstttuuuvvvwwwxxxyyyzzz...
(PID.TID 0000.0001) //    146 z...zzzyyyxxxwwwvvvuuutttsssrrrrqqqpppoooonnnmmmmlllkkkkjjjjiiiiihhhhgggggfffffeeeeeeddddddccccccccbbbbbbbbbbbaaaaaaaaaaaaaaaaaaaaaaaaaaaaaaaaabbbbbbbbbbbccccccccddddddeeeeeefffffggggghhhhiiiiijjjjkkkklllmmmmnnnoooopppqqqrrrrssstttuuuvvvwwwxxxyyyzzz...
(PID.TID 0000.0001) //    145 z...zzzyyyxxxwwwvvvuuutttsssrrrqqqqpppooonnnnmmmmlllkkkkjjjjiiiihhhhhggggfffffeeeeeedddddddcccccccbbbbbbbbbbbaaaaaaaaaaaaaaaaaaaaaaaaaaaaaaaaaaabbbbbbbbbbbcccccccdddddddeeeeeefffffgggghhhhhiiiijjjjkkkklllmmmmnnnnooopppqqqqrrrssstttuuuvvvwwwxxxyyyzzz...
(PID.TID 0000.0001) //    144 z...zzzyyyxxxwwwvvvuuutttsssrrrqqqqpppooonnnnmmmllllkkkkjjjjiiiihhhhgggggfffffeeeeeeddddddccccccccbbbbbbbbbbaaaaaaaaaaaaaaaaaaaaaaaaaaaaaaaaaaaaabbbbbbbbbbccccccccddddddeeeeeefffffggggghhhhiiiijjjjkkkkllllmmmnnnnooopppqqqqrrrssstttuuuvvvwwwxxxyyyzzz...
(PID.TID 0000.0001) //    143 z...zzzyyyxxxwwwvvvuuutttsssrrrqqqqpppooonnnnmmmllllkkkkjjjjiiiihhhhgggggfffffeeeeeddddddccccccccbbbbbbbbbbaaaaaaaaaaaaaaaaaaaaaaaaaaaaaaaaaaaaaaabbbbbbbbbbccccccccddddddeeeeefffffggggghhhhiiiijjjjkkkkllllmmmnnnnooopppqqqqrrrssstttuuuvvvwwwxxxyyyzzz...
(PID.TID 0000.0001) //    142 z...zzzyyyxxxwwwvvvuuutttsssrrrqqqppppooonnnnmmmllllkkkjjjjiiiihhhhhggggfffffeeeeeeddddddcccccccbbbbbbbbbbaaaaaaaaaaaaaaaaaaaaaaaaaaaaaaaaaaaaaaaaabbbbbbbbbbcccccccddddddeeeeeefffffgggghhhhhiiiijjjjkkkllllmmmnnnnoooppppqqqrrrssstttuuuvvvwwwxxxyyyzzz...
(PID.TID 0000.0001) //    141 z...zzzyyyxxxwwwvvvuuutttsssrrrqqqppppooonnnmmmmllllkkkjjjjiiiihhhhhggggfffffeeeeedddddddcccccccbbbbbbbbbaaaaaaaaaaaaaaaaaaaaaaaaaaaaaaaaaaaaaaaaaaabbbbbbbbbcccccccdddddddeeeeefffffgggghhhhhiiiijjjjkkkllllmmmmnnnoooppppqqqrrrssstttuuuvvvwwwxxxyyyzzz...
(PID.TID 0000.0001) //    140 z...zzzyyyxxxwwwvvvuuutttsssrrrqqqpppoooonnnmmmmlllkkkkjjjjiiiihhhhgggggfffffeeeeeddddddcccccccbbbbbbbbbaaaaaaaaaaaaaaaaaaaaaaaaaaaaaaaaaaaaaaaaaaaaabbbbbbbbbcccccccddddddeeeeefffffggggghhhhiiiijjjjkkkklllmmmmnnnoooopppqqqrrrssstttuuuvvvwwwxxxyyyzzz...
(PID.TID 0000.0001) //    139 z...zzzyyxxxwwwvvvvuuutttsssrrrqqqpppoooonnnmmmmlllkkkkjjjjiiiihhhhgggggfffffeeeeeddddddcccccccbbbbbbbbbaaaaaaaaaaaaaaaaa-----------aaaaaaaaaaaaaaaaabbbbbbbbbcccccccddddddeeeeefffffggggghhhhiiiijjjjkkkklllmmmmnnnoooopppqqqrrrssstttuuuvvvvwwwxxxyyzzz...
(PID.TID 0000.0001) //    138 z...zzyyyxxxwwwvvvuuuutttsssrrrqqqpppoooonnnmmmmlllkkkkjjjjiiiihhhhggggfffffeeeeeedddddcccccccbbbbbbbbbaaaaaaaaaaaaaaaa---------------aaaaaaaaaaaaaaaabbbbbbbbbcccccccdddddeeeeeefffffgggghhhhiiiijjjjkkkklllmmmmnnnoooopppqqqrrrssstttuuuuvvvwwwxxxyyyzz...
(PID.TID 0000.0001) //    137 z...zzyyyxxxwwwvvvuuuttttsssrrrqqqpppoooonnnmmmllllkkkkjjjjiiiihhhhggggfffffeeeeeddddddcccccccbbbbbbbbbaaaaaaaaaaaaaa-------------------aaaaaaaaaaaaaabbbbbbbbbcccccccddddddeeeeefffffgggghhhhiiiijjjjkkkkllllmmmnnnoooopppqqqrrrsssttttuuuvvvwwwxxxyyyzz...
(PID.TID 0000.0001) //    136 z...zzyyyxxxwwwvvvuuutttssssrrrqqqpppooonnnnmmmllllkkkkjjjiiiihhhhhggggfffffeeeeeddddddcccccccbbbbbbbbaaaaaaaaaaaaaa---------------------aaaaaaaaaaaaaabbbbbbbbcccccccddddddeeeeefffffgggghhhhhiiiijjjkkkkllllmmmnnnnooopppqqqrrrsssstttuuuvvvwwwxxxyyyzz...
(PID.TID 0000.0001) //    135 z...zzyyyxxxwwwvvvuuutttssssrrrqqqpppooonnnnmmmllllkkkjjjjiiiihhhhgggggfffffeeeeeddddddccccccbbbbbbbbbaaaaaaaaaaaaa-----------------------aaaaaaaaaaaaabbbbbbbbbccccccddddddeeeeefffffggggghhhhiiiijjjjkkkllllmmmnnnnooopppqqqrrrsssstttuuuvvvwwwxxxyyyzz...
(PID.TID 0000.0001) //    134 z...zzyyyxxxwwwvvvuuutttssssrrrqqqpppooonnnnmmmllllkkkjjjjiiiihhhhgggggffffeeeeeedddddcccccccbbbbbbbbaaaaaaaaaaaaa-------------------------aaaaaaaaaaaaabbbbbbbbcccccccdddddeeeeeeffffggggghhhhiiiijjjjkkkllllmmmnnnnooopppqqqrrrsssstttuuuvvvwwwxxxyyyzz...
(PID.TID 0000.0001) //    133 z...zzyyyxxxwwwvvvuuutttsssrrrrqqqpppooonnnnmmmllllkkkjjjjiiiihhhhgggggffffeeeeeddddddcccccccbbbbbbbbaaaaaaaaaaaa---------------------------aaaaaaaaaaaabbbbbbbbcccccccddddddeeeeeffffggggghhhhiiiijjjjkkkllllmmmnnnnooopppqqqrrrrssstttuuuvvvwwwxxxyyyzz...
(PID.TID 0000.0001) //    132 z...zzyyyxxxwwwvvvuuutttsssrrrrqqqpppooonnnnmmmllllkkkjjjjiiiihhhhggggfffffeeeeeddddddcccccccbbbbbbbbaaaaaaaaaaaa---------------------------aaaaaaaaaaaabbbbbbbbcccccccddddddeeeeefffffgggghhhhiiiijjjjkkkllllmmmnnnnooopppqqqrrrrssstttuuuvvvwwwxxxyyyzz...
(PID.TID 0000.0001) //    131 z...zzyyyxxxwwwvvvuuutttsssrrrrqqqpppooonnnnmmmlllkkkkjjjjiiiihhhhggggfffffeeeeeddddddccccccbbbbbbbbaaaaaaaaaaaa-----------------------------aaaaaaaaaaaabbbbbbbbccccccddddddeeeeefffffgggghhhhiiiijjjjkkkklllmmmnnnnooopppqqqrrrrssstttuuuvvvwwwxxxyyyzz...
(PID.TID 0000.0001) //    130 z...zzyyyxxxwwwvvvuuutttsssrrrqqqqpppooonnnmmmmlllkkkkjjjjiiiihhhhggggfffffeeeeeddddddccccccbbbbbbbbaaaaaaaaaaaa-----------------------------aaaaaaaaaaaabbbbbbbbccccccddddddeeeeefffffgggghhhhiiiijjjjkkkklllmmmmnnnooopppqqqqrrrssstttuuuvvvwwwxxxyyyzz...
(PID.TID 0000.0001) //    129 z...zzyyyxxxwwwvvvuuutttsssrrrqqqqpppooonnnmmmmlllkkkkjjjjiiiihhhhggggfffffeeeeeddddddccccccbbbbbbbbaaaaaaaaaaa-------------------------------aaaaaaaaaaabbbbbbbbccccccddddddeeeeefffffgggghhhhiiiijjjjkkkklllmmmmnnnooopppqqqqrrrssstttuuuvvvwwwxxxyyyzz...
(PID.TID 0000.0001) //    128 z...zzyyyxxxwwwvvvuuutttsssrrrqqqqpppooonnnmmmmlllkkkkjjjjiiiihhhhggggfffffeeeeeddddddccccccbbbbbbbbaaaaaaaaaaa-------------------------------aaaaaaaaaaabbbbbbbbccccccddddddeeeeefffffgggghhhhiiiijjjjkkkklllmmmmnnnooopppqqqqrrrssstttuuuvvvwwwxxxyyyzz...
(PID.TID 0000.0001) //    127 z...zzyyyxxxwwwvvvuuutttsssrrrqqqqpppooonnnmmmmlllkkkkjjjjiiiihhhhggggfffffeeeeedddddcccccccbbbbbbbbaaaaaaaaaaa-------------------------------aaaaaaaaaaabbbbbbbbcccccccdddddeeeeefffffgggghhhhiiiijjjjkkkklllmmmmnnnooopppqqqqrrrssstttuuuvvvwwwxxxyyyzz...
(PID.TID 0000.0001) //    126 z...zzyyyxxxwwwvvvuuutttsssrrrqqqqpppooonnnmmmmlllkkkkjjjjiiiihhhhggggfffffeeeeedddddcccccccbbbbbbbbaaaaaaaaaaa-------------------------------aaaaaaaaaaabbbbbbbbcccccccdddddeeeeefffffgggghhhhiiiijjjjkkkklllmmmmnnnooopppqqqqrrrssstttuuuvvvwwwxxxyyyzz...
(PID.TID 0000.0001) //    125 z...zzyyyxxxwwwvvvuuutttsssrrrqqqqpppooonnnmmmmlllkkkkjjjjiiiihhhhggggfffffeeeeedddddcccccccbbbbbbbbaaaaaaaaaaa-------------------------------aaaaaaaaaaabbbbbbbbcccccccdddddeeeeefffffgggghhhhiiiijjjjkkkklllmmmmnnnooopppqqqqrrrssstttuuuvvvwwwxxxyyyzz...
(PID.TID 0000.0001) //    124 z...zzyyyxxxwwwvvvuuutttsssrrrqqqqpppooonnnmmmmlllkkkkjjjjiiiihhhhggggfffffeeeeedddddcccccccbbbbbbbbaaaaaaaaaaa-------------------------------aaaaaaaaaaabbbbbbbbcccccccdddddeeeeefffffgggghhhhiiiijjjjkkkklllmmmmnnnooopppqqqqrrrssstttuuuvvvwwwxxxyyyzz...
(PID.TID 0000.0001) //    123 z...zzyyyxxxwwwvvvuuutttsssrrrqqqqpppooonnnmmmmlllkkkkjjjjiiiihhhhggggfffffeeeeedddddcccccccbbbbbbbbaaaaaaaaaaa-------------------------------aaaaaaaaaaabbbbbbbbcccccccdddddeeeeefffffgggghhhhiiiijjjjkkkklllmmmmnnnooopppqqqqrrrssstttuuuvvvwwwxxxyyyzz...
(PID.TID 0000.0001) //    122 z...zzyyyxxxwwwvvvuuutttsssrrrqqqqpppooonnnmmmmlllkkkkjjjjiiiihhhhggggfffffeeeeedddddcccccccbbbbbbbbaaaaaaaaaaa-------------------------------aaaaaaaaaaabbbbbbbbcccccccdddddeeeeefffffgggghhhhiiiijjjjkkkklllmmmmnnnooopppqqqqrrrssstttuuuvvvwwwxxxyyyzz...
(PID.TID 0000.0001) //    121 z...zzyyyxxxwwwvvvuuutttsssrrrqqqqpppooonnnmmmmlllkkkkjjjjiiiihhhhggggfffffeeeeeddddddccccccbbbbbbbbaaaaaaaaaaa-------------------------------aaaaaaaaaaabbbbbbbbccccccddddddeeeeefffffgggghhhhiiiijjjjkkkklllmmmmnnnooopppqqqqrrrssstttuuuvvvwwwxxxyyyzz...
(PID.TID 0000.0001) //    120 z...zzyyyxxxwwwvvvuuutttsssrrrqqqqpppooonnnmmmmlllkkkkjjjjiiiihhhhggggfffffeeeeeddddddccccccbbbbbbbbaaaaaaaaaaa-------------------------------aaaaaaaaaaabbbbbbbbccccccddddddeeeeefffffgggghhhhiiiijjjjkkkklllmmmmnnnooopppqqqqrrrssstttuuuvvvwwwxxxyyyzz...
(PID.TID 0000.0001) //    119 z...zzyyyxxxwwwvvvuuutttsssrrrqqqqpppooonnnmmmmlllkkkkjjjjiiiihhhhggggfffffeeeeeddddddccccccbbbbbbbbaaaaaaaaaaaa-----------------------------aaaaaaaaaaaabbbbbbbbccccccddddddeeeeefffffgggghhhhiiiijjjjkkkklllmmmmnnnooopppqqqqrrrssstttuuuvvvwwwxxxyyyzz...
(PID.TID 0000.0001) //    118 z...zzyyyxxxwwwvvvuuutttsssrrrrqqqpppooonnnnmmmlllkkkkjjjjiiiihhhhggggfffffeeeeeddddddccccccbbbbbbbbaaaaaaaaaaaa-----------------------------aaaaaaaaaaaabbbbbbbbccccccddddddeeeeefffffgggghhhhiiiijjjjkkkklllmmmnnnnooopppqqqrrrrssstttuuuvvvwwwxxxyyyzz...
(PID.TID 0000.0001) //    117 z...zzyyyxxxwwwvvvuuutttsssrrrrqqqpppooonnnnmmmllllkkkjjjjiiiihhhhggggfffffeeeeeddddddcccccccbbbbbbbbaaaaaaaaaaaa---------------------------aaaaaaaaaaaabbbbbbbbcccccccddddddeeeeefffffgggghhhhiiiijjjjkkkllllmmmnnnnooopppqqqrrrrssstttuuuvvvwwwxxxyyyzz...
(PID.TID 0000.0001) //    116 z...zzyyyxxxwwwvvvuuutttsssrrrrqqqpppooonnnnmmmllllkkkjjjjiiiihhhhgggggffffeeeeeddddddcccccccbbbbbbbbaaaaaaaaaaaa---------------------------aaaaaaaaaaaabbbbbbbbcccccccddddddeeeeeffffggggghhhhiiiijjjjkkkllllmmmnnnnooopppqqqrrrrssstttuuuvvvwwwxxxyyyzz...
(PID.TID 0000.0001) //    115 z...zzyyyxxxwwwvvvuuutttssssrrrqqqpppooonnnnmmmllllkkkjjjjiiiihhhhgggggffffeeeeeedddddcccccccbbbbbbbbaaaaaaaaaaaaa-------------------------aaaaaaaaaaaaabbbbbbbbcccccccdddddeeeeeeffffggggghhhhiiiijjjjkkkllllmmmnnnnooopppqqqrrrsssstttuuuvvvwwwxxxyyyzz...
(PID.TID 0000.0001) //    114 z...zzyyyxxxwwwvvvuuutttssssrrrqqqpppooonnnnmmmllllkkkjjjjiiiihhhhgggggfffffeeeeeddddddccccccbbbbbbbbbaaaaaaaaaaaaa-----------------------aaaaaaaaaaaaabbbbbbbbbccccccddddddeeeeefffffggggghhhhiiiijjjjkkkllllmmmnnnnooopppqqqrrrsssstttuuuvvvwwwxxxyyyzz...
(PID.TID 0000.0001) //    113 z...zzyyyxxxwwwvvvuuutttssssrrrqqqpppooonnnnmmmllllkkkkjjjiiiihhhhhggggfffffeeeeeddddddcccccccbbbbbbbbaaaaaaaaaaaaaa---------------------aaaaaaaaaaaaaabbbbbbbbcccccccddddddeeeeefffffgggghhhhhiiiijjjkkkkllllmmmnnnnooopppqqqrrrsssstttuuuvvvwwwxxxyyyzz...
(PID.TID 0000.0001) //    112 z...zzyyyxxxwwwvvvuuuttttsssrrrqqqpppoooonnnmmmllllkkkkjjjjiiiihhhhggggfffffeeeeeddddddcccccccbbbbbbbbbaaaaaaaaaaaaaa-------------------aaaaaaaaaaaaaabbbbbbbbbcccccccddddddeeeeefffffgggghhhhiiiijjjjkkkkllllmmmnnnoooopppqqqrrrsssttttuuuvvvwwwxxxyyyzz...
(PID.TID 0000.0001) //    111 z...zzyyyxxxwwwvvvuuuutttsssrrrqqqpppoooonnnmmmmlllkkkkjjjjiiiihhhhggggfffffeeeeeedddddcccccccbbbbbbbbbaaaaaaaaaaaaaaaa---------------aaaaaaaaaaaaaaaabbbbbbbbbcccccccdddddeeeeeefffffgggghhhhiiiijjjjkkkklllmmmmnnnoooopppqqqrrrssstttuuuuvvvwwwxxxyyyzz...
(PID.TID 0000.0001) //    110 z...zzzyyxxxwwwvvvvuuutttsssrrrqqqpppoooonnnmmmmlllkkkkjjjjiiiihhhhgggggfffffeeeeeddddddcccccccbbbbbbbbbaaaaaaaaaaaaaaaaa-----------aaaaaaaaaaaaaaaaabbbbbbbbbcccccccddddddeeeeefffffggggghhhhiiiijjjjkkkklllmmmmnnnoooopppqqqrrrssstttuuuvvvvwwwxxxyyzzz...
(PID.TID 0000.0001) //    109 z...zzzyyyxxxwwwvvvuuutttsssrrrqqqpppoooonnnmmmmlllkkkkjjjjiiiihhhhgggggfffffeeeeeddddddcccccccbbbbbbbbbaaaaaaaaaaaaaaaaaaaaaaaaaaaaaaaaaaaaaaaaaaaaabbbbbbbbbcccccccddddddeeeeefffffggggghhhhiiiijjjjkkkklllmmmmnnnoooopppqqqrrrssstttuuuvvvwwwxxxyyyzzz...
(PID.TID 0000.0001) //    108 z...zzzyyyxxxwwwvvvuuutttsssrrrqqqppppooonnnmmmmllllkkkjjjjiiiihhhhhggggfffffeeeeedddddddcccccccbbbbbbbbbaaaaaaaaaaaaaaaaaaaaaaaaaaaaaaaaaaaaaaaaaaabbbbbbbbbcccccccdddddddeeeeefffffgggghhhhhiiiijjjjkkkllllmmmmnnnoooppppqqqrrrssstttuuuvvvwwwxxxyyyzzz...
(PID.TID 0000.0001) //    107 z...zzzyyyxxxwwwvvvuuutttsssrrrqqqppppooonnnnmmmllllkkkjjjjiiiihhhhhggggfffffeeeeeeddddddcccccccbbbbbbbbbbaaaaaaaaaaaaaaaaaaaaaaaaaaaaaaaaaaaaaaaaabbbbbbbbbbcccccccddddddeeeeeefffffgggghhhhhiiiijjjjkkkllllmmmnnnnoooppppqqqrrrssstttuuuvvvwwwxxxyyyzzz...
(PID.TID 0000.0001) //    106 z...zzzyyyxxxwwwvvvuuutttsssrrrqqqqpppooonnnnmmmllllkkkkjjjjiiiihhhhgggggfffffeeeeeddddddccccccccbbbbbbbbbbaaaaaaaaaaaaaaaaaaaaaaaaaaaaaaaaaaaaaaabbbbbbbbbbccccccccddddddeeeeefffffggggghhhhiiiijjjjkkkkllllmmmnnnnooopppqqqqrrrssstttuuuvvvwwwxxxyyyzzz...
(PID.TID 0000.0001) //    105 z...zzzyyyxxxwwwvvvuuutttsssrrrqqqqpppooonnnnmmmllllkkkkjjjjiiiihhhhgggggfffffeeeeeeddddddccccccccbbbbbbbbbbaaaaaaaaaaaaaaaaaaaaaaaaaaaaaaaaaaaaabbbbbbbbbbccccccccddddddeeeeeefffffggggghhhhiiiijjjjkkkkllllmmmnnnnooopppqqqqrrrssstttuuuvvvwwwxxxyyyzzz...
(PID.TID 0000.0001) //    104 z...zzzyyyxxxwwwvvvuuutttsssrrrqqqqpppooonnnnmmmmlllkkkkjjjjiiiihhhhhggggfffffeeeeeedddddddcccccccbbbbbbbbbbbaaaaaaaaaaaaaaaaaaaaaaaaaaaaaaaaaaabbbbbbbbbbbcccccccdddddddeeeeeefffffgggghhhhhiiiijjjjkkkklllmmmmnnnnooopppqqqqrrrssstttuuuvvvwwwxxxyyyzzz...
(PID.TID 0000.0001) //    103 z...zzzyyyxxxwwwvvvuuutttsssrrrrqqqpppoooonnnmmmmlllkkkkjjjjiiiiihhhhgggggfffffeeeeeeddddddccccccccbbbbbbbbbbbaaaaaaaaaaaaaaaaaaaaaaaaaaaaaaaaabbbbbbbbbbbccccccccddddddeeeeeefffffggggghhhhiiiiijjjjkkkklllmmmmnnnoooopppqqqrrrrssstttuuuvvvwwwxxxyyyzzz...
(PID.TID 0000.0001) //    102 z...zzzyyyxxxwwwvvvuuutttsssrrrrqqqpppoooonnnmmmmllllkkkkjjjjiiiihhhhgggggfffffeeeeeedddddddccccccccbbbbbbbbbbbbaaaaaaaaaaaaaaaaaaaaaaaaaaaaabbbbbbbbbbbbccccccccdddddddeeeeeefffffggggghhhhiiiijjjjkkkkllllmmmmnnnoooopppqqqrrrrssstttuuuvvvwwwxxxyyyzzz...
(PID.TID 0000.0001) //    101 z...zzzyyyxxxwwwvvvuuutttssssrrrqqqpppoooonnnmmmmllllkkkkjjjjiiiihhhhhggggffffffeeeeeeddddddcccccccccbbbbbbbbbbbbbaaaaaaaaaaaaaaaaaaaaaaaaabbbbbbbbbbbbbcccccccccddddddeeeeeeffffffgggghhhhhiiiijjjjkkkkllllmmmmnnnoooopppqqqrrrsssstttuuuvvvwwwxxxyyyzzz...
(PID.TID 0000.0001) //    100 z...zzzyyyxxxwwwvvvuuutttssssrrrqqqppppooonnnnmmmllllkkkkjjjjiiiihhhhhgggggfffffeeeeeedddddddcccccccccbbbbbbbbbbbbbbaaaaaaaaaaaaaaaaaaaaabbbbbbbbbbbbbbcccccccccdddddddeeeeeefffffggggghhhhhiiiijjjjkkkkllllmmmnnnnoooppppqqqrrrsssstttuuuvvvwwwxxxyyyzzz...
(PID.TID 0000.0001) //     99 z...zzzyyyxxxwwwvvvuuuttttsssrrrqqqppppooonnnnmmmmlllkkkkjjjjiiiiihhhhgggggffffffeeeeeedddddddcccccccccbbbbbbbbbbbbbbbbaaaaaaaaaaaaaaabbbbbbbbbbbbbbbbcccccccccdddddddeeeeeeffffffggggghhhhiiiiijjjjkkkklllmmmmnnnnoooppppqqqrrrsssttttuuuvvvwwwxxxyyyzzz...
(PID.TID 0000.0001) //     98 z...zzzyyyxxxwwwvvvuuuttttsssrrrqqqqpppooonnnnmmmmllllkkkkjjjjiiiihhhhhgggggfffffeeeeeeddddddddcccccccccbbbbbbbbbbbbbbbbbbbbbbbbbbbbbbbbbbbbbbbbbbbbbcccccccccddddddddeeeeeefffffggggghhhhhiiiijjjjkkkkllllmmmmnnnnooopppqqqqrrrsssttttuuuvvvwwwxxxyyyzzz...
(PID.TID 0000.0001) //     97 z...zzzyyyxxxwwwvvvuuuttttsssrrrqqqqpppoooonnnmmmmllllkkkkjjjjiiiiihhhhgggggffffffeeeeeedddddddccccccccccbbbbbbbbbbbbbbbbbbbbbbbbbbbbbbbbbbbbbbbbbbbccccccccccdddddddeeeeeeffffffggggghhhhiiiiijjjjkkkkllllmmmmnnnoooopppqqqqrrrsssttttuuuvvvwwwxxxyyyzzz...
(PID.TID 0000.0001) //     96 z...zzzyyyxxxwwwvvvuuuutttsssrrrqqqqpppoooonnnnmmmllllkkkkjjjjiiiiihhhhhgggggfffffeeeeeeedddddddcccccccccccbbbbbbbbbbbbbbbbbbbbbbbbbbbbbbbbbbbbbbbcccccccccccdddddddeeeeeeefffffggggghhhhhiiiiijjjjkkkkllllmmmnnnnoooopppqqqqrrrssstttuuuuvvvwwwxxxyyyzzz...
(PID.TID 0000.0001) //     95 z...zzzyyyxxxwwwvvvuuuutttsssrrrrqqqppppooonnnnmmmmlllkkkkkjjjjiiiihhhhhgggggffffffeeeeeeedddddddcccccccccccbbbbbbbbbbbbbbbbbbbbbbbbbbbbbbbbbbbbbcccccccccccdddddddeeeeeeeffffffggggghhhhhiiiijjjjkkkkklllmmmmnnnnoooppppqqqrrrrssstttuuuuvvvwwwxxxyyyzzz...
(PID.TID 0000.0001) //     94 z...zzzyyyxxxwwwvvvvuuutttsssrrrrqqqppppooonnnnmmmmllllkkkkjjjjiiiiihhhhhgggggffffffeeeeeeddddddddccccccccccccbbbbbbbbbbbbbbbbbbbbbbbbbbbbbbbbbccccccccccccddddddddeeeeeeffffffggggghhhhhiiiiijjjjkkkkllllmmmmnnnnoooppppqqqrrrrssstttuuuvvvvwwwxxxyyyzzz...
(PID.TID 0000.0001) //     93 z...zzzyyyxxxwwwvvvvuuutttssssrrrqqqppppoooonnnmmmmllllkkkkjjjjjiiiihhhhhgggggffffffeeeeeeedddddddddccccccccccccbbbbbbbbbbbbbbbbbbbbbbbbbbbbbccccccccccccdddddddddeeeeeeeffffffggggghhhhhiiiijjjjjkkkkllllmmmmnnnooooppppqqqrrrsssstttuuuvvvvwwwxxxyyyzzz...
(PID.TID 0000.0001) //     92 z...zzzyyyxxxwwwvvvvuuutttssssrrrqqqqpppoooonnnnmmmllllkkkkkjjjjiiiiihhhhhgggggffffffeeeeeeedddddddddccccccccccccccbbbbbbbbbbbbbbbbbbbbbbbccccccccccccccdddddddddeeeeeeeffffffggggghhhhhiiiiijjjjkkkkkllllmmmnnnnoooopppqqqqrrrsssstttuuuvvvvwwwxxxyyyzzz...
(PID.TID 0000.0001) //     91 z...zzzyyyxxxwwwwvvvuuutttssssrrrqqqqpppoooonnnnmmmmllllkkkkjjjjiiiiihhhhhggggggffffffeeeeeeedddddddddcccccccccccccccccbbbbbbbbbbbbbbbcccccccccccccccccdddddddddeeeeeeeffffffgggggghhhhhiiiiijjjjkkkkllllmmmmnnnnoooopppqqqqrrrsssstttuuuvvvwwwwxxxyyyzzz...
(PID.TID 0000.0001) //     90 z...zzzyyyxxxwwwwvvvuuuttttsssrrrrqqqppppooonnnnmmmmllllkkkkjjjjjiiiiihhhhhgggggfffffffeeeeeeeddddddddddcccccccccccccccccccccccccccccccccccccccccccccddddddddddeeeeeeefffffffggggghhhhhiiiiijjjjjkkkkllllmmmmnnnnoooppppqqqrrrrsssttttuuuvvvwwwwxxxyyyzzz...
(PID.TID 0000.0001) //     89 z...zzzyyyxxxwwwwvvvuuuttttsssrrrrqqqppppoooonnnmmmmlllllkkkkjjjjiiiiihhhhhggggggfffffffeeeeeeedddddddddddcccccccccccccccccccccccccccccccccccccccccdddddddddddeeeeeeefffffffgggggghhhhhiiiiijjjjkkkklllllmmmmnnnooooppppqqqrrrrsssttttuuuvvvwwwwxxxyyyzzz...
(PID.TID 0000.0001) //     88 z...zzzyyyxxxxwwwvvvuuuutttsssrrrrqqqqpppoooonnnnmmmmllllkkkkjjjjjiiiiihhhhhggggggfffffffeeeeeeeeddddddddddcccccccccccccccccccccccccccccccccccccccddddddddddeeeeeeeefffffffgggggghhhhhiiiiijjjjjkkkkllllmmmmnnnnoooopppqqqqrrrrssstttuuuuvvvwwwxxxxyyyzzz...
(PID.TID 0000.0001) //     87 z...zzzyyyxxxxwwwvvvuuuutttssssrrrqqqqpppoooonnnnmmmmllllkkkkkjjjjiiiiihhhhhhggggggfffffffeeeeeeeeddddddddddddcccccccccccccccccccccccccccccccccddddddddddddeeeeeeeefffffffgggggghhhhhhiiiiijjjjkkkkkllllmmmmnnnnoooopppqqqqrrrsssstttuuuuvvvwwwxxxxyyyzzz...
(PID.TID 0000.0001) //     86 z...zzzyyyxxxxwwwvvvuuuutttssssrrrqqqqppppoooonnnnmmmmllllkkkkjjjjjiiiiihhhhhhggggggfffffffeeeeeeeedddddddddddddcccccccccccccccccccccccccccccdddddddddddddeeeeeeeefffffffgggggghhhhhhiiiiijjjjjkkkkllllmmmmnnnnooooppppqqqqrrrsssstttuuuuvvvwwwxxxxyyyzzz...
(PID.TID 0000.0001) //     85 z...zzzyyyxxxxwwwvvvvuuutttssssrrrrqqqppppoooonnnnmmmmllllkkkkkjjjjjiiiiihhhhhgggggggfffffffeeeeeeeeedddddddddddddddcccccccccccccccccccccdddddddddddddddeeeeeeeeefffffffggggggghhhhhiiiiijjjjjkkkkkllllmmmmnnnnooooppppqqqrrrrsssstttuuuvvvvwwwxxxxyyyzzz...
(PID.TID 0000.0001) //     84 z...zzzyyyxxxxwwwvvvvuuuttttsssrrrrqqqqpppoooonnnnmmmmlllllkkkkjjjjjiiiiihhhhhhgggggggfffffffeeeeeeeeeeddddddddddddddddddddcccccccddddddddddddddddddddeeeeeeeeeefffffffggggggghhhhhhiiiiijjjjjkkkklllllmmmmnnnnoooopppqqqqrrrrsssttttuuuvvvvwwwxxxxyyyzzz...
(PID.TID 0000.0001) //     83 z...zzzyyyyxxxwwwvvvvuuuttttsssrrrrqqqqppppoooonnnnmmmmllllkkkkkjjjjjiiiiihhhhhhgggggggfffffffeeeeeeeeeeedddddddddddddddddddddddddddddddddddddddddddeeeeeeeeeeefffffffggggggghhhhhhiiiiijjjjjkkkkkllllmmmmnnnnooooppppqqqqrrrrsssttttuuuvvvvwwwxxxyyyyzzz...
(PID.TID 0000.0001) //     82 z...zzzyyyyxxxwwwvvvvuuuttttssssrrrqqqqppppoooonnnnmmmmlllllkkkkkjjjjjiiiiihhhhhhgggggggffffffffeeeeeeeeeeedddddddddddddddddddddddddddddddddddddddeeeeeeeeeeeffffffffggggggghhhhhhiiiiijjjjjkkkkklllllmmmmnnnnooooppppqqqqrrrssssttttuuuvvvvwwwxxxyyyyzzz...
(PID.TID 0000.0001) //     81 z...zzzyyyyxxxwwwwvvvuuuutttssssrrrrqqqppppoooonnnnnmmmmllllkkkkkjjjjjiiiiiihhhhhhgggggggffffffffeeeeeeeeeeeedddddddddddddddddddddddddddddddddddeeeeeeeeeeeeffffffffggggggghhhhhhiiiiiijjjjjkkkkkllllmmmmnnnnnooooppppqqqrrrrsssstttuuuuvvvwwwwxxxyyyyzzz...
(PID.TID 0000.0001) //     80 z...zzzyyyyxxxwwwwvvvuuuutttssssrrrrqqqqppppoooonnnnmmmmlllllkkkkkjjjjjiiiiiihhhhhhgggggggfffffffffeeeeeeeeeeeeeedddddddddddddddddddddddddddeeeeeeeeeeeeeefffffffffggggggghhhhhhiiiiiijjjjjkkkkklllllmmmmnnnnooooppppqqqqrrrrsssstttuuuuvvvwwwwxxxyyyyzzz...
(PID.TID 0000.0001) //     79 z...zzzyyyyxxxwwwwvvvuuuuttttsssrrrrqqqqppppoooonnnnmmmmmlllllkkkkjjjjjjiiiiiihhhhhhgggggggffffffffffeeeeeeeeeeeeeeeedddddddddddddddddddeeeeeeeeeeeeeeeeffffffffffggggggghhhhhhiiiiiijjjjjjkkkklllllmmmmmnnnnooooppppqqqqrrrrsssttttuuuuvvvwwwwxxxyyyyzzz...
(PID.TID 0000.0001) //     78 z...zzzyyyyxxxwwwwvvvvuuuttttssssrrrrqqqppppooooonnnnmmmmlllllkkkkkjjjjjjiiiiihhhhhhhggggggggffffffffffeeeeeeeeeeeeeeeeeeeeeeeeeeeeeeeeeeeeeeeeeeeeeeeffffffffffgggggggghhhhhhhiiiiijjjjjjkkkkklllllmmmmnnnnoooooppppqqqrrrrssssttttuuuvvvvwwwwxxxyyyyzzz...
(PID.TID 0000.0001) //     77 z...zzzyyyyxxxxwwwvvvvuuuttttssssrrrrqqqqppppoooonnnnmmmmmlllllkkkkkjjjjjiiiiiihhhhhhhggggggggfffffffffffeeeeeeeeeeeeeeeeeeeeeeeeeeeeeeeeeeeeeeeeeeefffffffffffgggggggghhhhhhhiiiiiijjjjjkkkkklllllmmmmmnnnnooooppppqqqqrrrrssssttttuuuvvvvwwwxxxxyyyyzzz...
(PID.TID 0000.0001) //     76 z...zzzyyyyxxxxwwwvvvvuuuutttssssrrrrqqqqppppooooonnnnmmmmmlllllkkkkkjjjjjiiiiiiihhhhhhhggggggggffffffffffffeeeeeeeeeeeeeeeeeeeeeeeeeeeeeeeeeeeeeffffffffffffgggggggghhhhhhhiiiiiiijjjjjkkkkklllllmmmmmnnnnoooooppppqqqqrrrrsssstttuuuuvvvvwwwxxxxyyyyzzz...
(PID.TID 0000.0001) //     75 z...zzzyyyyxxxxwwwvvvvuuuuttttssssrrrrqqqqppppoooonnnnnmmmmlllllkkkkkkjjjjjiiiiiiihhhhhhhgggggggggffffffffffffffeeeeeeeeeeeeeeeeeeeeeeeeeeeeeffffffffffffffggggggggghhhhhhhiiiiiiijjjjjkkkkkklllllmmmmnnnnnooooppppqqqqrrrrssssttttuuuuvvvvwwwxxxxyyyyzzz...
(PID.TID 0000.0001) //     74 z...zzzzyyyxxxxwwwwvvvuuuuttttssssrrrrqqqqppppooooonnnnmmmmmlllllkkkkkjjjjjjiiiiiiihhhhhhhggggggggggffffffffffffffffeeeeeeeeeeeeeeeeeeeeeffffffffffffffffgggggggggghhhhhhhiiiiiiijjjjjjkkkkklllllmmmmmnnnnoooooppppqqqqrrrrssssttttuuuuvvvwwwwxxxxyyyzzzz...
(PID.TID 0000.0001) //     73 z...zzzzyyyxxxxwwwwvvvvuuuttttssssrrrrqqqqpppppoooonnnnnmmmmmlllllkkkkkjjjjjjiiiiiiihhhhhhhhggggggggggfffffffffffffffffffffffffffffffffffffffffffffffffgggggggggghhhhhhhhiiiiiiijjjjjjkkkkklllllmmmmmnnnnnoooopppppqqqqrrrrssssttttuuuvvvvwwwwxxxxyyyzzzz...
(PID.TID 0000.0001) //     72 z...zzzzyyyxxxxwwwwvvvvuuuuttttssssrrrrqqqqppppooooonnnnmmmmmllllllkkkkkjjjjjjiiiiiiihhhhhhhhhgggggggggggfffffffffffffffffffffffffffffffffffffffffffggggggggggghhhhhhhhhiiiiiiijjjjjjkkkkkllllllmmmmmnnnnoooooppppqqqqrrrrssssttttuuuuvvvvwwwwxxxxyyyzzzz...
(PID.TID 0000.0001) //     71 z...zzzzyyyxxxxwwwwvvvvuuuuttttssssrrrrqqqqpppppoooonnnnnmmmmmlllllkkkkkkjjjjjjjiiiiiiihhhhhhhhhggggggggggggfffffffffffffffffffffffffffffffffffffgggggggggggghhhhhhhhhiiiiiiijjjjjjjkkkkkklllllmmmmmnnnnnoooopppppqqqqrrrrssssttttuuuuvvvvwwwwxxxxyyyzzzz...
(PID.TID 0000.0001) //     70 z...zzzzyyyyxxxwwwwvvvvuuuuttttssssrrrrqqqqqppppooooonnnnnmmmmmlllllkkkkkkjjjjjjjiiiiiiihhhhhhhhhhggggggggggggggfffffffffffffffffffffffffffffgggggggggggggghhhhhhhhhhiiiiiiijjjjjjjkkkkkklllllmmmmmnnnnnoooooppppqqqqqrrrrssssttttuuuuvvvvwwwwxxxyyyyzzzz...
(PID.TID 0000.0001) //     69 z...zzzzyyyyxxxxwwwvvvvuuuuttttsssssrrrrqqqqpppppooooonnnnmmmmmmlllllkkkkkkjjjjjjjiiiiiiiihhhhhhhhhhggggggggggggggggggfffffffffffffffffgggggggggggggggggghhhhhhhhhhiiiiiiiijjjjjjjkkkkkklllllmmmmmmnnnnooooopppppqqqqrrrrsssssttttuuuuvvvvwwwxxxxyyyyzzzz...
(PID.TID 0000.0001) //     68 z...zzzzyyyyxxxxwwwwvvvvuuuuttttssssrrrrqqqqqppppooooonnnnnmmmmmmlllllkkkkkkkjjjjjjjiiiiiiiihhhhhhhhhhhggggggggggggggggggggggggggggggggggggggggggggggghhhhhhhhhhhiiiiiiiijjjjjjjkkkkkkklllllmmmmmmnnnnnoooooppppqqqqqrrrrssssttttuuuuvvvvwwwwxxxxyyyyzzzz...
(PID.TID 0000.0001) //     67 z...zzzzyyyyxxxxwwwwvvvvuuuuttttssssrrrrrqqqqpppppooooonnnnnmmmmmllllllkkkkkkkjjjjjjjiiiiiiiiihhhhhhhhhhhhggggggggggggggggggggggggggggggggggggggggghhhhhhhhhhhhiiiiiiiiijjjjjjjkkkkkkkllllllmmmmmnnnnnooooopppppqqqqrrrrrssssttttuuuuvvvvwwwwxxxxyyyyzzzz...
(PID.TID 0000.0001) //     66 z...zzzzyyyyxxxxwwwwvvvvuuuutttttssssrrrrqqqqqpppppooooonnnnnmmmmmllllllkkkkkkkjjjjjjjjiiiiiiiiihhhhhhhhhhhhhhggggggggggggggggggggggggggggggggghhhhhhhhhhhhhhiiiiiiiiijjjjjjjjkkkkkkkllllllmmmmmnnnnnooooopppppqqqqqrrrrsssstttttuuuuvvvvwwwwxxxxyyyyzzzz...
(PID.TID 0000.0001) //     65 z...zzzzyyyyxxxxwwwwvvvvuuuuuttttssssrrrrrqqqqpppppooooonnnnnnmmmmmlllllllkkkkkkjjjjjjjjiiiiiiiiiiihhhhhhhhhhhhhhhhggggggggggggggggggggggghhhhhhhhhhhhhhhhiiiiiiiiiiijjjjjjjjkkkkkklllllllmmmmmnnnnnnooooopppppqqqqrrrrrssssttttuuuuuvvvvwwwwxxxxyyyyzzzz...
(PID.TID 0000.0001) //     64 z...zzzzyyyyxxxxwwwwvvvvvuuuuttttsssssrrrrqqqqqpppppooooonnnnnnmmmmmlllllllkkkkkkkjjjjjjjjiiiiiiiiiiihhhhhhhhhhhhhhhhhhhhhhhhhhhhhhhhhhhhhhhhhhhhhhhhhhhiiiiiiiiiiijjjjjjjjkkkkkkklllllllmmmmmnnnnnnooooopppppqqqqqrrrrsssssttttuuuuvvvvvwwwwxxxxyyyyzzzz...
(PID.TID 0000.0001) //     63 z...zzzzyyyyxxxxxwwwwvvvvuuuutttttssssrrrrrqqqqqpppppooooonnnnnnmmmmmmllllllkkkkkkkkjjjjjjjjiiiiiiiiiiiiihhhhhhhhhhhhhhhhhhhhhhhhhhhhhhhhhhhhhhhhhhhiiiiiiiiiiiiijjjjjjjjkkkkkkkkllllllmmmmmmnnnnnnooooopppppqqqqqrrrrrsssstttttuuuuvvvvwwwwxxxxxyyyyzzzz...
(PID.TID 0000.0001) //     62 z...zzzzyyyyxxxxxwwwwvvvvuuuuuttttsssssrrrrqqqqqpppppoooooonnnnnnmmmmmmlllllllkkkkkkkjjjjjjjjjjiiiiiiiiiiiiihhhhhhhhhhhhhhhhhhhhhhhhhhhhhhhhhhhhhiiiiiiiiiiiiijjjjjjjjjjkkkkkkklllllllmmmmmmnnnnnnoooooopppppqqqqqrrrrsssssttttuuuuuvvvvwwwwxxxxxyyyyzzzz...
(PID.TID 0000.0001) //     61 z...zzzzyyyyyxxxxwwwwvvvvvuuuutttttssssrrrrrqqqqqpppppoooooonnnnnnmmmmmmlllllllkkkkkkkkjjjjjjjjjjiiiiiiiiiiiiiiiiihhhhhhhhhhhhhhhhhhhhhhhhhiiiiiiiiiiiiiiiiijjjjjjjjjjkkkkkkkklllllllmmmmmmnnnnnnoooooopppppqqqqqrrrrrsssstttttuuuuvvvvvwwwwxxxxyyyyyzzzz...
(PID.TID 0000.0001) //     60 z...zzzzyyyyyxxxxwwwwvvvvvuuuutttttsssssrrrrrqqqqqpppppoooooonnnnnnmmmmmmllllllllkkkkkkkkjjjjjjjjjjjiiiiiiiiiiiiiiiiiiiiiiiiiiiiiiiiiiiiiiiiiiiiiiiiiiiiijjjjjjjjjjjkkkkkkkkllllllllmmmmmmnnnnnnoooooopppppqqqqqrrrrrssssstttttuuuuvvvvvwwwwxxxxyyyyyzzzz...
(PID.TID 0000.0001) //     59 z...zzzzzyyyyxxxxwwwwwvvvvuuuuutttttssssrrrrrqqqqqqpppppoooooonnnnnnmmmmmmmlllllllkkkkkkkkkjjjjjjjjjjjjjiiiiiiiiiiiiiiiiiiiiiiiiiiiiiiiiiiiiiiiiiiiiijjjjjjjjjjjjjkkkkkkkkklllllllmmmmmmmnnnnnnoooooopppppqqqqqqrrrrrsssstttttuuuuuvvvvwwwwwxxxxyyyyzzzzz...
(PID.TID 0000.0001) //     58 z...zzzzzyyyyxxxxxwwwwvvvvvuuuutttttsssssrrrrrqqqqqppppppoooooonnnnnnmmmmmmmllllllllkkkkkkkkkkjjjjjjjjjjjjjjiiiiiiiiiiiiiiiiiiiiiiiiiiiiiiiiiiiiijjjjjjjjjjjjjjkkkkkkkkkkllllllllmmmmmmmnnnnnnooooooppppppqqqqqrrrrrssssstttttuuuuvvvvvwwwwxxxxxyyyyzzzzz...
(PID.TID 0000.0001) //     57 z...zzzzzyyyyxxxxxwwwwvvvvvuuuuutttttsssssrrrrrqqqqqppppppoooooonnnnnnmmmmmmmmllllllllkkkkkkkkkkkjjjjjjjjjjjjjjjjjiiiiiiiiiiiiiiiiiiiiiiiiijjjjjjjjjjjjjjjjjkkkkkkkkkkkllllllllmmmmmmmmnnnnnnooooooppppppqqqqqrrrrrssssstttttuuuuuvvvvvwwwwxxxxxyyyyzzzzz...
(PID.TID 0000.0001) //     56 z...zzzzzyyyyxxxxxwwwwwvvvvuuuuutttttsssssrrrrrqqqqqqppppppoooooonnnnnnnmmmmmmmlllllllllkkkkkkkkkkkkjjjjjjjjjjjjjjjjjjjjjjjjjjjjjjjjjjjjjjjjjjjjjjjjjjjjjkkkkkkkkkkkklllllllllmmmmmmmnnnnnnnooooooppppppqqqqqqrrrrrssssstttttuuuuuvvvvwwwwwxxxxxyyyyzzzzz...
(PID.TID 0000.0001) //     55 z...zzzzzyyyyyxxxxwwwwwvvvvvuuuuutttttsssssrrrrrqqqqqqppppppoooooonnnnnnnmmmmmmmmllllllllllkkkkkkkkkkkkkjjjjjjjjjjjjjjjjjjjjjjjjjjjjjjjjjjjjjjjjjjjjjkkkkkkkkkkkkkllllllllllmmmmmmmmnnnnnnnooooooppppppqqqqqqrrrrrssssstttttuuuuuvvvvvwwwwwxxxxyyyyyzzzzz...
(PID.TID 0000.0001) //     54 z...zzzzzyyyyyxxxxxwwwwvvvvvuuuuutttttssssssrrrrrqqqqqqppppppooooooonnnnnnnmmmmmmmmllllllllllkkkkkkkkkkkkkkkjjjjjjjjjjjjjjjjjjjjjjjjjjjjjjjjjjjjjkkkkkkkkkkkkkkkllllllllllmmmmmmmmnnnnnnnoooooooppppppqqqqqqrrrrrsssssstttttuuuuuvvvvvwwwwxxxxxyyyyyzzzzz...
(PID.TID 0000.0001) //     53 z...zzzzzyyyyyxxxxxwwwwwvvvvvuuuuutttttsssssrrrrrrqqqqqqppppppooooooonnnnnnnnmmmmmmmmlllllllllllkkkkkkkkkkkkkkkkkkkjjjjjjjjjjjjjjjjjjjjjjjkkkkkkkkkkkkkkkkkkklllllllllllmmmmmmmmnnnnnnnnoooooooppppppqqqqqqrrrrrrssssstttttuuuuuvvvvvwwwwwxxxxxyyyyyzzzzz...
(PID.TID 0000.0001) //     52 z...zzzzzyyyyyxxxxxwwwwwvvvvvuuuuuttttttsssssrrrrrrqqqqqqppppppoooooooonnnnnnnmmmmmmmmmmllllllllllllkkkkkkkkkkkkkkkkkkkkkkkkkkkkkkkkkkkkkkkkkkkkkkkkkkkkkllllllllllllmmmmmmmmmmnnnnnnnooooooooppppppqqqqqqrrrrrrsssssttttttuuuuuvvvvvwwwwwxxxxxyyyyyzzzzz...
(PID.TID 0000.0001) //     51 +...+zzzzyyyyyxxxxxwwwwwvvvvvvuuuuutttttssssssrrrrrrqqqqqqpppppppooooooonnnnnnnnmmmmmmmmmmllllllllllllllkkkkkkkkkkkkkkkkkkkkkkkkkkkkkkkkkkkkkkkkkkkkkllllllllllllllmmmmmmmmmmnnnnnnnnooooooopppppppqqqqqqrrrrrrsssssstttttuuuuuvvvvvvwwwwwxxxxxyyyyyzzzz+...
(PID.TID 0000.0001) //     50 +...+zzzzzyyyyyxxxxxwwwwwvvvvvuuuuuttttttssssssrrrrrrqqqqqqpppppppoooooooonnnnnnnnnmmmmmmmmmmlllllllllllllllllkkkkkkkkkkkkkkkkkkkkkkkkkkkkkkkkklllllllllllllllllmmmmmmmmmmnnnnnnnnnoooooooopppppppqqqqqqrrrrrrssssssttttttuuuuuvvvvvwwwwwxxxxxyyyyyzzzzz+...
(PID.TID 0000.0001) //     49 +...+zzzzzyyyyyxxxxxwwwwwvvvvvvuuuuuttttttssssssrrrrrrqqqqqqqpppppppoooooooonnnnnnnnnmmmmmmmmmmmmllllllllllllllllllllllkkkkkkkkkkkkkkkllllllllllllllllllllllmmmmmmmmmmmmnnnnnnnnnoooooooopppppppqqqqqqqrrrrrrssssssttttttuuuuuvvvvvvwwwwwxxxxxyyyyyzzzzz+...
(PID.TID 0000.0001) //     48 +...+zzzzzyyyyyxxxxxwwwwwwvvvvvuuuuuuttttttssssssrrrrrrqqqqqqqpppppppooooooooonnnnnnnnnnmmmmmmmmmmmmmlllllllllllllllllllllllllllllllllllllllllllllllllllmmmmmmmmmmmmmnnnnnnnnnnooooooooopppppppqqqqqqqrrrrrrssssssttttttuuuuuuvvvvvwwwwwwxxxxxyyyyyzzzzz+...
(PID.TID 0000.0001) //     47 +...+zzzzzyyyyyxxxxxxwwwwwvvvvvvuuuuuttttttsssssssrrrrrrqqqqqqqppppppppooooooooonnnnnnnnnnmmmmmmmmmmmmmmmmlllllllllllllllllllllllllllllllllllllllllmmmmmmmmmmmmmmmmnnnnnnnnnnoooooooooppppppppqqqqqqqrrrrrrsssssssttttttuuuuuvvvvvvwwwwwxxxxxxyyyyyzzzzz+...
(PID.TID 0000.0001) //     46 +...+zzzzzyyyyyyxxxxxwwwwwwvvvvvuuuuuuttttttsssssssrrrrrrqqqqqqqqppppppppooooooooonnnnnnnnnnnnmmmmmmmmmmmmmmmmmmmlllllllllllllllllllllllllllmmmmmmmmmmmmmmmmmmmnnnnnnnnnnnnoooooooooppppppppqqqqqqqqrrrrrrsssssssttttttuuuuuuvvvvvwwwwwwxxxxxyyyyyyzzzzz+...
(PID.TID 0000.0001) //     45 +...+zzzzzyyyyyyxxxxxwwwwwwvvvvvvuuuuuuttttttsssssssrrrrrrrqqqqqqqpppppppppoooooooooonnnnnnnnnnnnnmmmmmmmmmmmmmmmmmmmmmmmmmmmmmmmmmmmmmmmmmmmmmmmmmmmmmmmmmnnnnnnnnnnnnnoooooooooopppppppppqqqqqqqrrrrrrrsssssssttttttuuuuuuvvvvvvwwwwwwxxxxxyyyyyyzzzzz+...
(PID.TID 0000.0001) //     44 +...+zzzzzyyyyyyxxxxxxwwwwwwvvvvvvuuuuuuttttttsssssssrrrrrrrqqqqqqqqpppppppppooooooooooonnnnnnnnnnnnnnmmmmmmmmmmmmmmmmmmmmmmmmmmmmmmmmmmmmmmmmmmmmmmmmmnnnnnnnnnnnnnnooooooooooopppppppppqqqqqqqqrrrrrrrsssssssttttttuuuuuuvvvvvvwwwwwwxxxxxxyyyyyyzzzzz+...
(PID.TID 0000.0001) //     43 +...+zzzzzzyyyyyxxxxxxwwwwwwvvvvvvuuuuuuuttttttsssssssrrrrrrrrqqqqqqqqpppppppppoooooooooooonnnnnnnnnnnnnnnnnnmmmmmmmmmmmmmmmmmmmmmmmmmmmmmmmmmmmnnnnnnnnnnnnnnnnnnoooooooooooopppppppppqqqqqqqqrrrrrrrrsssssssttttttuuuuuuuvvvvvvwwwwwwxxxxxxyyyyyzzzzzz+...
(PID.TID 0000.0001) //     42 +...+zzzzzzyyyyyyxxxxxxwwwwwwvvvvvvuuuuuuuttttttssssssssrrrrrrrqqqqqqqqqppppppppppooooooooooooonnnnnnnnnnnnnnnnnnnnnnnnnmmmmmmmmmmmmmnnnnnnnnnnnnnnnnnnnnnnnnnoooooooooooooppppppppppqqqqqqqqqrrrrrrrssssssssttttttuuuuuuuvvvvvvwwwwwwxxxxxxyyyyyyzzzzzz+...
(PID.TID 0000.0001) //     41 +...+zzzzzzyyyyyyxxxxxxwwwwwwvvvvvvvuuuuuuutttttttsssssssrrrrrrrrqqqqqqqqqpppppppppppoooooooooooooonnnnnnnnnnnnnnnnnnnnnnnnnnnnnnnnnnnnnnnnnnnnnnnnnnnnnnnoooooooooooooopppppppppppqqqqqqqqqrrrrrrrrssssssstttttttuuuuuuuvvvvvvvwwwwwwxxxxxxyyyyyyzzzzzz+...
(PID.TID 0000.0001) //     40 +...+zzzzzzyyyyyyxxxxxxxwwwwwwvvvvvvvuuuuuuutttttttssssssssrrrrrrrrqqqqqqqqqqpppppppppppooooooooooooooooonnnnnnnnnnnnnnnnnnnnnnnnnnnnnnnnnnnnnnnnnnnooooooooooooooooopppppppppppqqqqqqqqqqrrrrrrrrsssssssstttttttuuuuuuuvvvvvvvwwwwwwxxxxxxxyyyyyyzzzzzz+...
(PID.TID 0000.0001) //     39 +...+zzzzzzyyyyyyyxxxxxxwwwwwwwvvvvvvvuuuuuuutttttttssssssssrrrrrrrrrqqqqqqqqqqpppppppppppppoooooooooooooooooooooonnnnnnnnnnnnnnnnnnnnnnnnnoooooooooooooooooooooopppppppppppppqqqqqqqqqqrrrrrrrrrsssssssstttttttuuuuuuuvvvvvvvwwwwwwwxxxxxxyyyyyyyzzzzzz+...
(PID.TID 0000.0001) //     38 +...+zzzzzzzyyyyyyxxxxxxxwwwwwwwvvvvvvvuuuuuuuttttttttssssssssrrrrrrrrrqqqqqqqqqqqpppppppppppppppooooooooooooooooooooooooooooooooooooooooooooooooooooooooooopppppppppppppppqqqqqqqqqqqrrrrrrrrrssssssssttttttttuuuuuuuvvvvvvvwwwwwwwxxxxxxxyyyyyyzzzzzzz+...
(PID.TID 0000.0001) //     37 +...+zzzzzzzyyyyyyyxxxxxxwwwwwwwvvvvvvvvuuuuuuuttttttttsssssssssrrrrrrrrrrqqqqqqqqqqqqppppppppppppppppoooooooooooooooooooooooooooooooooooooooooooooooooppppppppppppppppqqqqqqqqqqqqrrrrrrrrrrsssssssssttttttttuuuuuuuvvvvvvvvwwwwwwwxxxxxxyyyyyyyzzzzzzz+...
(PID.TID 0000.0001) //     36 +...+zzzzzzzyyyyyyyxxxxxxxwwwwwwwvvvvvvvvuuuuuuutttttttttsssssssssrrrrrrrrrrrqqqqqqqqqqqqqppppppppppppppppppppoooooooooooooooooooooooooooooooooppppppppppppppppppppqqqqqqqqqqqqqrrrrrrrrrrrssssssssstttttttttuuuuuuuvvvvvvvvwwwwwwwxxxxxxxyyyyyyyzzzzzzz+...
(PID.TID 0000.0001) //     35 +...++zzzzzzyyyyyyyyxxxxxxxwwwwwwwvvvvvvvvuuuuuuuutttttttttsssssssssrrrrrrrrrrrrqqqqqqqqqqqqqqpppppppppppppppppppppppppppppppppppppppppppppppppppppppppppppppppqqqqqqqqqqqqqqrrrrrrrrrrrrssssssssstttttttttuuuuuuuuvvvvvvvvwwwwwwwxxxxxxxyyyyyyyyzzzzzz++...
(PID.TID 0000.0001) //     34 +...++zzzzzzzyyyyyyyxxxxxxxwwwwwwwwvvvvvvvvuuuuuuuuttttttttttssssssssssrrrrrrrrrrrrqqqqqqqqqqqqqqqqqpppppppppppppppppppppppppppppppppppppppppppppppppppppqqqqqqqqqqqqqqqqqrrrrrrrrrrrrssssssssssttttttttttuuuuuuuuvvvvvvvvwwwwwwwwxxxxxxxyyyyyyyzzzzzzz++...
(PID.TID 0000.0001) //     33 +...++zzzzzzzyyyyyyyyxxxxxxxwwwwwwwwvvvvvvvvuuuuuuuuuttttttttttsssssssssssrrrrrrrrrrrrrqqqqqqqqqqqqqqqqqqqqqpppppppppppppppppppppppppppppppppppppqqqqqqqqqqqqqqqqqqqqqrrrrrrrrrrrrrsssssssssssttttttttttuuuuuuuuuvvvvvvvvwwwwwwwwxxxxxxxyyyyyyyyzzzzzzz++...
(PID.TID 0000.0001) //     32 +...++zzzzzzzyyyyyyyyxxxxxxxxwwwwwwwwvvvvvvvvvuuuuuuuuuttttttttttssssssssssssrrrrrrrrrrrrrrrqqqqqqqqqqqqqqqqqqqqqqqqqqqqqqqqqqqqqqqqqqqqqqqqqqqqqqqqqqqqqqqqqqqqqrrrrrrrrrrrrrrrssssssssssssttttttttttuuuuuuuuuvvvvvvvvvwwwwwwwwxxxxxxxxyyyyyyyyzzzzzzz++...
(PID.TID 0000.0001) //     31 +...++zzzzzzzzyyyyyyyyxxxxxxxxwwwwwwwwvvvvvvvvvuuuuuuuuuutttttttttttssssssssssssrrrrrrrrrrrrrrrrrqqqqqqqqqqqqqqqqqqqqqqqqqqqqqqqqqqqqqqqqqqqqqqqqqqqqqqqqqqqrrrrrrrrrrrrrrrrrsssssssssssstttttttttttuuuuuuuuuuvvvvvvvvvwwwwwwwwxxxxxxxxyyyyyyyyzzzzzzzz++...
(PID.TID 0000.0001) //     30 +...++zzzzzzzzyyyyyyyyxxxxxxxxxwwwwwwwwwvvvvvvvvvuuuuuuuuuutttttttttttssssssssssssssrrrrrrrrrrrrrrrrrrrrrqqqqqqqqqqqqqqqqqqqqqqqqqqqqqqqqqqqqqqqqqqqrrrrrrrrrrrrrrrrrrrrrsssssssssssssstttttttttttuuuuuuuuuuvvvvvvvvvwwwwwwwwwxxxxxxxxxyyyyyyyyzzzzzzzz++...
(PID.TID 0000.0001) //     29 +...++zzzzzzzzzyyyyyyyyxxxxxxxxxwwwwwwwwwvvvvvvvvvvuuuuuuuuuutttttttttttttsssssssssssssssrrrrrrrrrrrrrrrrrrrrrrrrrrrrrrrqqqqqqqqqqqqqrrrrrrrrrrrrrrrrrrrrrrrrrrrrrrrssssssssssssssstttttttttttttuuuuuuuuuuvvvvvvvvvvwwwwwwwwwxxxxxxxxxyyyyyyyyzzzzzzzzz++...
(PID.TID 0000.0001) //     28 +...++zzzzzzzzzyyyyyyyyyxxxxxxxxxwwwwwwwwwvvvvvvvvvvvuuuuuuuuuuutttttttttttttssssssssssssssssssrrrrrrrrrrrrrrrrrrrrrrrrrrrrrrrrrrrrrrrrrrrrrrrrrrrrrrrrrrrrrrrsssssssssssssssssstttttttttttttuuuuuuuuuuuvvvvvvvvvvvwwwwwwwwwxxxxxxxxxyyyyyyyyyzzzzzzzzz++...
(PID.TID 0000.0001) //     27 +...+++zzzzzzzzzyyyyyyyyyxxxxxxxxxwwwwwwwwwwvvvvvvvvvvvuuuuuuuuuuuuttttttttttttttssssssssssssssssssssssrrrrrrrrrrrrrrrrrrrrrrrrrrrrrrrrrrrrrrrrrrrrrrrssssssssssssssssssssssttttttttttttttuuuuuuuuuuuuvvvvvvvvvvvwwwwwwwwwwxxxxxxxxxyyyyyyyyyzzzzzzzzz+++...
(PID.TID 0000.0001) //     26 +...+++zzzzzzzzzyyyyyyyyyyxxxxxxxxxwwwwwwwwwwwvvvvvvvvvvvuuuuuuuuuuuuuttttttttttttttttsssssssssssssssssssssssssssssssrrrrrrrrrrrrrrrrrrrsssssssssssssssssssssssssssssssttttttttttttttttuuuuuuuuuuuuuvvvvvvvvvvvwwwwwwwwwwwxxxxxxxxxyyyyyyyyyyzzzzzzzzz+++...
(PID.TID 0000.0001) //     25 +...+++zzzzzzzzzzyyyyyyyyyxxxxxxxxxxxwwwwwwwwwwwvvvvvvvvvvvvuuuuuuuuuuuuuuttttttttttttttttttsssssssssssssssssssssssssssssssssssssssssssssssssssssssssssssssssssssttttttttttttttttttuuuuuuuuuuuuuuvvvvvvvvvvvvwwwwwwwwwwwxxxxxxxxxxxyyyyyyyyyzzzzzzzzzz+++...
(PID.TID 0000.0001) //     24 +...+++zzzzzzzzzzyyyyyyyyyyyxxxxxxxxxxwwwwwwwwwwwwvvvvvvvvvvvvvuuuuuuuuuuuuuuutttttttttttttttttttttttssssssssssssssssssssssssssssssssssssssssssssssssssstttttttttttttttttttttttuuuuuuuuuuuuuuuvvvvvvvvvvvvvwwwwwwwwwwwwxxxxxxxxxxyyyyyyyyyyyzzzzzzzzzz+++...
(PID.TID 0000.0001) //     23 +...+++zzzzzzzzzzzyyyyyyyyyyyxxxxxxxxxxxwwwwwwwwwwwwvvvvvvvvvvvvvvuuuuuuuuuuuuuuuuutttttttttttttttttttttttttttttttssssssssssssssssssssssssstttttttttttttttttttttttttttttttuuuuuuuuuuuuuuuuuvvvvvvvvvvvvvvwwwwwwwwwwwwxxxxxxxxxxxyyyyyyyyyyyzzzzzzzzzzz+++...
(PID.TID 0000.0001) //     22 +...++++zzzzzzzzzzzyyyyyyyyyyyxxxxxxxxxxxxwwwwwwwwwwwwwvvvvvvvvvvvvvvvuuuuuuuuuuuuuuuuuuuutttttttttttttttttttttttttttttttttttttttttttttttttttttttttttttttttttttttttuuuuuuuuuuuuuuuuuuuuvvvvvvvvvvvvvvvwwwwwwwwwwwwwxxxxxxxxxxxxyyyyyyyyyyyzzzzzzzzzzz++++...
(PID.TID 0000.0001) //     21 +...++++zzzzzzzzzzzyyyyyyyyyyyyxxxxxxxxxxxxxwwwwwwwwwwwwwwvvvvvvvvvvvvvvvvvuuuuuuuuuuuuuuuuuuuuuuutttttttttttttttttttttttttttttttttttttttttttttttttttttttttuuuuuuuuuuuuuuuuuuuuuuuvvvvvvvvvvvvvvvvvwwwwwwwwwwwwwwxxxxxxxxxxxxxyyyyyyyyyyyyzzzzzzzzzzz++++...
(PID.TID 0000.0001) //     20 +...++++zzzzzzzzzzzzyyyyyyyyyyyyyxxxxxxxxxxxxxwwwwwwwwwwwwwwwvvvvvvvvvvvvvvvvvvvuuuuuuuuuuuuuuuuuuuuuuuuuuuuuuuuutttttttttttttttttttttttttttuuuuuuuuuuuuuuuuuuuuuuuuuuuuuuuuuvvvvvvvvvvvvvvvvvvvwwwwwwwwwwwwwwwxxxxxxxxxxxxxyyyyyyyyyyyyyzzzzzzzzzzzz++++...
(PID.TID 0000.0001) //     19 +...+++++zzzzzzzzzzzzyyyyyyyyyyyyyyxxxxxxxxxxxxxxwwwwwwwwwwwwwwwwvvvvvvvvvvvvvvvvvvvvvvuuuuuuuuuuuuuuuuuuuuuuuuuuuuuuuuuuuuuuuuuuuuuuuuuuuuuuuuuuuuuuuuuuuuuuuuuuuuuuuvvvvvvvvvvvvvvvvvvvvvvwwwwwwwwwwwwwwwwxxxxxxxxxxxxxxyyyyyyyyyyyyyyzzzzzzzzzzzz+++++...
(PID.TID 0000.0001) //     18 +...+++++zzzzzzzzzzzzzyyyyyyyyyyyyyyyxxxxxxxxxxxxxxxwwwwwwwwwwwwwwwwwwvvvvvvvvvvvvvvvvvvvvvvvvvvuuuuuuuuuuuuuuuuuuuuuuuuuuuuuuuuuuuuuuuuuuuuuuuuuuuuuuuuuuuuuvvvvvvvvvvvvvvvvvvvvvvvvvvwwwwwwwwwwwwwwwwwwxxxxxxxxxxxxxxxyyyyyyyyyyyyyyyzzzzzzzzzzzzz+++++...
(PID.TID 0000.0001) //     17 +...+++++zzzzzzzzzzzzzzzyyyyyyyyyyyyyyyxxxxxxxxxxxxxxxxxwwwwwwwwwwwwwwwwwwwwvvvvvvvvvvvvvvvvvvvvvvvvvvvvvvvvvvvvuuuuuuuuuuuuuuuuuuuuuuuuuuuuuvvvvvvvvvvvvvvvvvvvvvvvvvvvvvvvvvvvvwwwwwwwwwwwwwwwwwwwwxxxxxxxxxxxxxxxxxyyyyyyyyyyyyyyyzzzzzzzzzzzzzzz+++++...
(PID.TID 0000.0001) //     16 +...++++++zzzzzzzzzzzzzzzyyyyyyyyyyyyyyyyxxxxxxxxxxxxxxxxxxxwwwwwwwwwwwwwwwwwwwwwwwvvvvvvvvvvvvvvvvvvvvvvvvvvvvvvvvvvvvvvvvvvvvvvvvvvvvvvvvvvvvvvvvvvvvvvvvvvvvvvvvvvvvvvvwwwwwwwwwwwwwwwwwwwwwwwxxxxxxxxxxxxxxxxxxxyyyyyyyyyyyyyyyyzzzzzzzzzzzzzzz++++++...
(PID.TID 0000.0001) //     15 +...++++++zzzzzzzzzzzzzzzzzyyyyyyyyyyyyyyyyyxxxxxxxxxxxxxxxxxxxxxwwwwwwwwwwwwwwwwwwwwwwwwwwwwvvvvvvvvvvvvvvvvvvvvvvvvvvvvvvvvvvvvvvvvvvvvvvvvvvvvvvvvvvvvvvvvvvvwwwwwwwwwwwwwwwwwwwwwwwwwwwwxxxxxxxxxxxxxxxxxxxxxyyyyyyyyyyyyyyyyyzzzzzzzzzzzzzzzzz++++++...
(PID.TID 0000.0001) //     14 +...+++++++zzzzzzzzzzzzzzzzzzyyyyyyyyyyyyyyyyyyyxxxxxxxxxxxxxxxxxxxxxxxwwwwwwwwwwwwwwwwwwwwwwwwwwwwwwwwwwwwwwwwvvvvvvvvvvvvvvvvvvvvvvvvvvvvvvvwwwwwwwwwwwwwwwwwwwwwwwwwwwwwwwwwwwwwwwwxxxxxxxxxxxxxxxxxxxxxxxyyyyyyyyyyyyyyyyyyyzzzzzzzzzzzzzzzzzz+++++++...
(PID.TID 0000.0001) //     13 +...++++++++zzzzzzzzzzzzzzzzzzzyyyyyyyyyyyyyyyyyyyyyxxxxxxxxxxxxxxxxxxxxxxxxxxxwwwwwwwwwwwwwwwwwwwwwwwwwwwwwwwwwwwwwwwwwwwwwwwwwwwwwwwwwwwwwwwwwwwwwwwwwwwwwwwwwwwwwwwwwwwwwwwxxxxxxxxxxxxxxxxxxxxxxxxxxxyyyyyyyyyyyyyyyyyyyyyzzzzzzzzzzzzzzzzzzz++++++++...
(PID.TID 0000.0001) //     12 +...++++++++zzzzzzzzzzzzzzzzzzzzzyyyyyyyyyyyyyyyyyyyyyyyyxxxxxxxxxxxxxxxxxxxxxxxxxxxxxxxxxwwwwwwwwwwwwwwwwwwwwwwwwwwwwwwwwwwwwwwwwwwwwwwwwwwwwwwwwwwwwwwwwwwwwwwwwwxxxxxxxxxxxxxxxxxxxxxxxxxxxxxxxxxyyyyyyyyyyyyyyyyyyyyyyyyzzzzzzzzzzzzzzzzzzzzz++++++++...
(PID.TID 0000.0001) //     11 +...+++++++++zzzzzzzzzzzzzzzzzzzzzzzyyyyyyyyyyyyyyyyyyyyyyyyyyyxxxxxxxxxxxxxxxxxxxxxxxxxxxxxxxxxxxxxxxxxxxxxxxxwwwwwwwwwwwwwwwwwwwwwwwwwwwwwwwxxxxxxxxxxxxxxxxxxxxxxxxxxxxxxxxxxxxxxxxxxxxxxxxyyyyyyyyyyyyyyyyyyyyyyyyyyyzzzzzzzzzzzzzzzzzzzzzzz+++++++++...
(PID.TID 0000.0001) //     10 +...+++++++++++zzzzzzzzzzzzzzzzzzzzzzzzzyyyyyyyyyyyyyyyyyyyyyyyyyyyyyyyyxxxxxxxxxxxxxxxxxxxxxxxxxxxxxxxxxxxxxxxxxxxxxxxxxxxxxxxxxxxxxxxxxxxxxxxxxxxxxxxxxxxxxxxxxxxxxxxxxxxxxxxxxxxxxyyyyyyyyyyyyyyyyyyyyyyyyyyyyyyyyzzzzzzzzzzzzzzzzzzzzzzzzz+++++++++++...
(PID.TID 0000.0001) //      9 +...++++++++++++zzzzzzzzzzzzzzzzzzzzzzzzzzzzzyyyyyyyyyyyyyyyyyyyyyyyyyyyyyyyyyyyyyyyyxxxxxxxxxxxxxxxxxxxxxxxxxxxxxxxxxxxxxxxxxxxxxxxxxxxxxxxxxxxxxxxxxxxxxxxxxxxxxxxxxxxyyyyyyyyyyyyyyyyyyyyyyyyyyyyyyyyyyyyyyyyzzzzzzzzzzzzzzzzzzzzzzzzzzzzz++++++++++++...
(PID.TID 0000.0001) //      8 +...++++++++++++++zzzzzzzzzzzzzzzzzzzzzzzzzzzzzzzzzzyyyyyyyyyyyyyyyyyyyyyyyyyyyyyyyyyyyyyyyyyyyyyyyyyyyyyyyyyyyxxxxxxxxxxxxxxxxxxxxxxxxxxxxxxxyyyyyyyyyyyyyyyyyyyyyyyyyyyyyyyyyyyyyyyyyyyyyyyyyyyyyyyyyyyzzzzzzzzzzzzzzzzzzzzzzzzzzzzzzzzzz++++++++++++++...
(PID.TID 0000.0001) //      7 +...+++++++++++++++++zzzzzzzzzzzzzzzzzzzzzzzzzzzzzzzzzzzzzzzzyyyyyyyyyyyyyyyyyyyyyyyyyyyyyyyyyyyyyyyyyyyyyyyyyyyyyyyyyyyyyyyyyyyyyyyyyyyyyyyyyyyyyyyyyyyyyyyyyyyyyyyyyyyyyyyyyyyyyyyyyyyyyyyyyyyzzzzzzzzzzzzzzzzzzzzzzzzzzzzzzzzzzzzzzzz+++++++++++++++++...
(PID.TID 0000.0001) //      6 +...++++++++++++++++++++zzzzzzzzzzzzzzzzzzzzzzzzzzzzzzzzzzzzzzzzzzzzzzzzzzzzyyyyyyyyyyyyyyyyyyyyyyyyyyyyyyyyyyyyyyyyyyyyyyyyyyyyyyyyyyyyyyyyyyyyyyyyyyyyyyyyyyyyyyyyyyyyyyyyyyyyyzzzzzzzzzzzzzzzzzzzzzzzzzzzzzzzzzzzzzzzzzzzzzzzzzzzz++++++++++++++++++++...
(PID.TID 0000.0001) //      5 +...+++++++++++++++++++++++++zzzzzzzzzzzzzzzzzzzzzzzzzzzzzzzzzzzzzzzzzzzzzzzzzzzzzzzzzzzzzzzzzzzzzzzzzzzzzzzzzzzyyyyyyyyyyyyyyyyyyyyyyyyyyyyyzzzzzzzzzzzzzzzzzzzzzzzzzzzzzzzzzzzzzzzzzzzzzzzzzzzzzzzzzzzzzzzzzzzzzzzzzzzzzzzzzzz+++++++++++++++++++++++++...
(PID.TID 0000.0001) //      4 +...+++++++++++++++++++++++++++++++++zzzzzzzzzzzzzzzzzzzzzzzzzzzzzzzzzzzzzzzzzzzzzzzzzzzzzzzzzzzzzzzzzzzzzzzzzzzzzzzzzzzzzzzzzzzzzzzzzzzzzzzzzzzzzzzzzzzzzzzzzzzzzzzzzzzzzzzzzzzzzzzzzzzzzzzzzzzzzzzzzzzzzzzzzzzzzzzzzzz+++++++++++++++++++++++++++++++++...
(PID.TID 0000.0001) //      3 +...+++++++++++++++++++++++++++++++++++++++++++++++++zzzzzzzzzzzzzzzzzzzzzzzzzzzzzzzzzzzzzzzzzzzzzzzzzzzzzzzzzzzzzzzzzzzzzzzzzzzzzzzzzzzzzzzzzzzzzzzzzzzzzzzzzzzzzzzzzzzzzzzzzzzzzzzzzzzzzzzzzzzzzzzzzzz+++++++++++++++++++++++++++++++++++++++++++++++++...
(PID.TID 0000.0001) //      2 +...+++++++++++++++++++++++++++++++++++++++++++++++++++++++++++++++++++++++++++++++++++++++++++++++++++++++++++++++++++++++++++++++++++++++++++++++++++++++++++++++++++++++++++++++++++++++++++++++++++++++++++++++++++++++++++++++++++++++++++++++++++++...
(PID.TID 0000.0001) //      1 ............................................................................................................................................................................................................................................................
(PID.TID 0000.0001) //      0 ............................................................................................................................................................................................................................................................
(PID.TID 0000.0001) //     -1 +...+++++++++++++++++++++++++++++++++++++++++++++++++++++++++++++++++++++++++++++++++++++++++++++++++++++++++++++++++++++++++++++++++++++++++++++++++++++++++++++++++++++++++++++++++++++++++++++++++++++++++++++++++++++++++++++++++++++++++++++++++++++...
(PID.TID 0000.0001) // =======================================================
(PID.TID 0000.0001) // END OF FIELD                                          =
(PID.TID 0000.0001) // =======================================================
(PID.TID 0000.0001) 
(PID.TID 0000.0001) // =======================================================
(PID.TID 0000.0001) // Field hFacS at iteration          0
(PID.TID 0000.0001) // CMIN =          9.000040039062500E-01
(PID.TID 0000.0001) // CMAX =          9.999398437500000E-01
(PID.TID 0000.0001) // CINT =          3.701327401620370E-03
(PID.TID 0000.0001) // SYMBOLS (CMIN->CMAX): -abcdefghijklmnopqrstuvwxyz+
(PID.TID 0000.0001) //                  0.0: .
(PID.TID 0000.0001) // RANGE I (Lo:Hi:Step):(    -1:   250:     1)
(PID.TID 0000.0001) // RANGE J (Lo:Hi:Step):(   250:    -1:    -1)
(PID.TID 0000.0001) // RANGE K (Lo:Hi:Step):(   1:   1:   1)
(PID.TID 0000.0001) // =======================================================
(PID.TID 0000.0001) K =   1
(PID.TID 0000.0001) //                I=8       I=18      I=28      I=38      I=48      I=58      I=68      I=78      I=88      I=98      I=108     I=118     I=128     I=138     I=148     I=158     I=168     I=178     I=188     I=198     I=208     I=218     I=228     I=238     I=248
(PID.TID 0000.0001) // |--J--|101234567|901234567|901234567|901234567|901234567|901234567|901234567|901234567|901234567|901234567|901234567|901234567|901234567|901234567|901234567|901234567|901234567|901234567|901234567|901234567|901234567|901234567|901234567|901234567|901234567|90
(PID.TID 0000.0001) //    250 ............................................................................................................................................................................................................................................................
(PID.TID 0000.0001) //    249 ............................................................................................................................................................................................................................................................
(PID.TID 0000.0001) //    248 ............................................................................................................................................................................................................................................................
(PID.TID 0000.0001) //    247 +..++++++++++++++++++++++++++++++++++++++++++++++++++zzzzzzzzzzzzzzzzzzzzzzzzzzzzzzzzzzzzzzzzzzzzzzzzzzzzzzzzzzzzzzzzzzzzzzzzzzzzzzzzzzzzzzzzzzzzzzzzzzzzzzzzzzzzzzzzzzzzzzzzzzzzzzzzzzzzzzzzzzzzzzzzzz++++++++++++++++++++++++++++++++++++++++++++++++++..+
(PID.TID 0000.0001) //    246 +..++++++++++++++++++++++++++++++++++zzzzzzzzzzzzzzzzzzzzzzzzzzzzzzzzzzzzzzzzzzzzzzzzzzzzzzzzzzzzzzzzzzzzzzzzzzzzzzzzzzzzzzzzzzzzzzzzzzzzzzzzzzzzzzzzzzzzzzzzzzzzzzzzzzzzzzzzzzzzzzzzzzzzzzzzzzzzzzzzzzzzzzzzzzzzzzzzzz++++++++++++++++++++++++++++++++++..+
(PID.TID 0000.0001) //    245 +..++++++++++++++++++++++++++zzzzzzzzzzzzzzzzzzzzzzzzzzzzzzzzzzzzzzzzzzzzzzzzzzzzzzzzzzzzzzzzzzzzzzzzzzzzzzzzzzzyyyyyyyyyyyyyyyyyyyyyyyyyyyyzzzzzzzzzzzzzzzzzzzzzzzzzzzzzzzzzzzzzzzzzzzzzzzzzzzzzzzzzzzzzzzzzzzzzzzzzzzzzzzzzzz++++++++++++++++++++++++++..+
(PID.TID 0000.0001) //    244 +..+++++++++++++++++++++zzzzzzzzzzzzzzzzzzzzzzzzzzzzzzzzzzzzzzzzzzzzzzzzzzzzyyyyyyyyyyyyyyyyyyyyyyyyyyyyyyyyyyyyyyyyyyyyyyyyyyyyyyyyyyyyyyyyyyyyyyyyyyyyyyyyyyyyyyyyyyyyyyyyyyyyzzzzzzzzzzzzzzzzzzzzzzzzzzzzzzzzzzzzzzzzzzzzzzzzzzzz+++++++++++++++++++++..+
(PID.TID 0000.0001) //    243 +..++++++++++++++++++zzzzzzzzzzzzzzzzzzzzzzzzzzzzzzzzzzzzzzzzyyyyyyyyyyyyyyyyyyyyyyyyyyyyyyyyyyyyyyyyyyyyyyyyyyyyyyyyyyyyyyyyyyyyyyyyyyyyyyyyyyyyyyyyyyyyyyyyyyyyyyyyyyyyyyyyyyyyyyyyyyyyyyyyyyzzzzzzzzzzzzzzzzzzzzzzzzzzzzzzzzzzzzzzzz++++++++++++++++++..+
(PID.TID 0000.0001) //    242 +..+++++++++++++++zzzzzzzzzzzzzzzzzzzzzzzzzzzzzzzzzzyyyyyyyyyyyyyyyyyyyyyyyyyyyyyyyyyyyyyyyyyyyyyyyyyyyyyyyyyyyxxxxxxxxxxxxxxxxxxxxxxxxxxxxxxyyyyyyyyyyyyyyyyyyyyyyyyyyyyyyyyyyyyyyyyyyyyyyyyyyyyyyyyyyyzzzzzzzzzzzzzzzzzzzzzzzzzzzzzzzzzz+++++++++++++++..+
(PID.TID 0000.0001) //    241 +..+++++++++++++zzzzzzzzzzzzzzzzzzzzzzzzzzzzzyyyyyyyyyyyyyyyyyyyyyyyyyyyyyyyyyyyyyyyyxxxxxxxxxxxxxxxxxxxxxxxxxxxxxxxxxxxxxxxxxxxxxxxxxxxxxxxxxxxxxxxxxxxxxxxxxxxxxxxxxxyyyyyyyyyyyyyyyyyyyyyyyyyyyyyyyyyyyyyyyyzzzzzzzzzzzzzzzzzzzzzzzzzzzzz+++++++++++++..+
(PID.TID 0000.0001) //    240 +..++++++++++++zzzzzzzzzzzzzzzzzzzzzzzzzyyyyyyyyyyyyyyyyyyyyyyyyyyyyyyyyxxxxxxxxxxxxxxxxxxxxxxxxxxxxxxxxxxxxxxxxxxxxxxxxxxxxxxxxxxxxxxxxxxxxxxxxxxxxxxxxxxxxxxxxxxxxxxxxxxxxxxxxxxxxyyyyyyyyyyyyyyyyyyyyyyyyyyyyyyyyzzzzzzzzzzzzzzzzzzzzzzzzz++++++++++++..+
(PID.TID 0000.0001) //    239 +..++++++++++zzzzzzzzzzzzzzzzzzzzzzzyyyyyyyyyyyyyyyyyyyyyyyyyyyxxxxxxxxxxxxxxxxxxxxxxxxxxxxxxxxxxxxxxxxxxxxxxxxwwwwwwwwwwwwwwwwwwwwwwwwwwwwwwxxxxxxxxxxxxxxxxxxxxxxxxxxxxxxxxxxxxxxxxxxxxxxxxyyyyyyyyyyyyyyyyyyyyyyyyyyyzzzzzzzzzzzzzzzzzzzzzzz++++++++++..+
(PID.TID 0000.0001) //    238 +..+++++++++zzzzzzzzzzzzzzzzzzzzzyyyyyyyyyyyyyyyyyyyyyyyyxxxxxxxxxxxxxxxxxxxxxxxxxxxxxxxxxwwwwwwwwwwwwwwwwwwwwwwwwwwwwwwwwwwwwwwwwwwwwwwwwwwwwwwwwwwwwwwwwwwwwwwwwxxxxxxxxxxxxxxxxxxxxxxxxxxxxxxxxxyyyyyyyyyyyyyyyyyyyyyyyyzzzzzzzzzzzzzzzzzzzzz+++++++++..+
(PID.TID 0000.0001) //    237 +..+++++++++zzzzzzzzzzzzzzzzzzzyyyyyyyyyyyyyyyyyyyyyxxxxxxxxxxxxxxxxxxxxxxxxxxxwwwwwwwwwwwwwwwwwwwwwwwwwwwwwwwwwwwwwwwwwwwwwwwwwwwwwwwwwwwwwwwwwwwwwwwwwwwwwwwwwwwwwwwwwwwwwwxxxxxxxxxxxxxxxxxxxxxxxxxxxyyyyyyyyyyyyyyyyyyyyyzzzzzzzzzzzzzzzzzzz+++++++++..+
(PID.TID 0000.0001) //    236 +..++++++++zzzzzzzzzzzzzzzzzzyyyyyyyyyyyyyyyyyyyxxxxxxxxxxxxxxxxxxxxxxxwwwwwwwwwwwwwwwwwwwwwwwwwwwwwwwwwwwwwwwwvvvvvvvvvvvvvvvvvvvvvvvvvvvvvvwwwwwwwwwwwwwwwwwwwwwwwwwwwwwwwwwwwwwwwwxxxxxxxxxxxxxxxxxxxxxxxyyyyyyyyyyyyyyyyyyyzzzzzzzzzzzzzzzzzz++++++++..+
(PID.TID 0000.0001) //    235 +..+++++++zzzzzzzzzzzzzzzzzyyyyyyyyyyyyyyyyyxxxxxxxxxxxxxxxxxxxxxwwwwwwwwwwwwwwwwwwwwwwwwwwwwvvvvvvvvvvvvvvvvvvvvvvvvvvvvvvvvvvvvvvvvvvvvvvvvvvvvvvvvvvvvvvvvvvwwwwwwwwwwwwwwwwwwwwwwwwwwwwxxxxxxxxxxxxxxxxxxxxxyyyyyyyyyyyyyyyyyzzzzzzzzzzzzzzzzz+++++++..+
(PID.TID 0000.0001) //    234 +..+++++++zzzzzzzzzzzzzzzyyyyyyyyyyyyyyyyxxxxxxxxxxxxxxxxxxxwwwwwwwwwwwwwwwwwwwwwwwvvvvvvvvvvvvvvvvvvvvvvvvvvvvvvvvvvvvvvvvvvvvvvvvvvvvvvvvvvvvvvvvvvvvvvvvvvvvvvvvvvvvvvwwwwwwwwwwwwwwwwwwwwwwwxxxxxxxxxxxxxxxxxxxyyyyyyyyyyyyyyyyzzzzzzzzzzzzzzz+++++++..+
(PID.TID 0000.0001) //    233 +..++++++zzzzzzzzzzzzzzzyyyyyyyyyyyyyyyxxxxxxxxxxxxxxxxxwwwwwwwwwwwwwwwwwwwwvvvvvvvvvvvvvvvvvvvvvvvvvvvvvvvvvvvvuuuuuuuuuuuuuuuuuuuuuuuuuuuuvvvvvvvvvvvvvvvvvvvvvvvvvvvvvvvvvvvvwwwwwwwwwwwwwwwwwwwwxxxxxxxxxxxxxxxxxyyyyyyyyyyyyyyyzzzzzzzzzzzzzzz++++++..+
(PID.TID 0000.0001) //    232 +..++++++zzzzzzzzzzzzzyyyyyyyyyyyyyyyxxxxxxxxxxxxxxxwwwwwwwwwwwwwwwwwwvvvvvvvvvvvvvvvvvvvvvvvvvvuuuuuuuuuuuuuuuuuuuuuuuuuuuuuuuuuuuuuuuuuuuuuuuuuuuuuuuuuuuuvvvvvvvvvvvvvvvvvvvvvvvvvvwwwwwwwwwwwwwwwwwwxxxxxxxxxxxxxxxyyyyyyyyyyyyyyyzzzzzzzzzzzzz++++++..+
(PID.TID 0000.0001) //    231 +..++++++zzzzzzzzzzzzyyyyyyyyyyyyyyxxxxxxxxxxxxxxwwwwwwwwwwwwwwwwvvvvvvvvvvvvvvvvvvvvvvuuuuuuuuuuuuuuuuuuuuuuuuuuuuuuuuuuuuuuuuuuuuuuuuuuuuuuuuuuuuuuuuuuuuuuuuuuuuuuvvvvvvvvvvvvvvvvvvvvvvwwwwwwwwwwwwwwwwxxxxxxxxxxxxxxyyyyyyyyyyyyyyzzzzzzzzzzzz++++++..+
(PID.TID 0000.0001) //    230 +..+++++zzzzzzzzzzzzyyyyyyyyyyyyyxxxxxxxxxxxxxwwwwwwwwwwwwwwwvvvvvvvvvvvvvvvvvvvuuuuuuuuuuuuuuuuuuuuuuuuuuuuuuuuuttttttttttttttttttttttttttuuuuuuuuuuuuuuuuuuuuuuuuuuuuuuuuuvvvvvvvvvvvvvvvvvvvwwwwwwwwwwwwwwwxxxxxxxxxxxxxyyyyyyyyyyyyyzzzzzzzzzzzz+++++..+
(PID.TID 0000.0001) //    229 +..+++++zzzzzzzzzzzyyyyyyyyyyyyxxxxxxxxxxxxxwwwwwwwwwwwwwwvvvvvvvvvvvvvvvvvuuuuuuuuuuuuuuuuuuuuuuuttttttttttttttttttttttttttttttttttttttttttttttttttttttttuuuuuuuuuuuuuuuuuuuuuuuvvvvvvvvvvvvvvvvvwwwwwwwwwwwwwwxxxxxxxxxxxxxyyyyyyyyyyyyzzzzzzzzzzz+++++..+
(PID.TID 0000.0001) //    228 +..+++++zzzzzzzzzzzyyyyyyyyyyyxxxxxxxxxxxxwwwwwwwwwwwwwvvvvvvvvvvvvvvvuuuuuuuuuuuuuuuuuuuuttttttttttttttttttttttttttttttttttttttttttttttttttttttttttttttttttttttttuuuuuuuuuuuuuuuuuuuuvvvvvvvvvvvvvvvwwwwwwwwwwwwwxxxxxxxxxxxxyyyyyyyyyyyzzzzzzzzzzz+++++..+
(PID.TID 0000.0001) //    227 +..++++zzzzzzzzzzzyyyyyyyyyyyxxxxxxxxxxxwwwwwwwwwwwwvvvvvvvvvvvvvvuuuuuuuuuuuuuuuuutttttttttttttttttttttttttttttttsssssssssssssssssssssssstttttttttttttttttttttttttttttttuuuuuuuuuuuuuuuuuvvvvvvvvvvvvvvwwwwwwwwwwwwxxxxxxxxxxxyyyyyyyyyyyzzzzzzzzzzz++++..+
(PID.TID 0000.0001) //    226 +..++++zzzzzzzzzzyyyyyyyyyyyxxxxxxxxxxwwwwwwwwwwwwvvvvvvvvvvvvvuuuuuuuuuuuuuuutttttttttttttttttttttttsssssssssssssssssssssssssssssssssssssssssssssssssstttttttttttttttttttttttuuuuuuuuuuuuuuuvvvvvvvvvvvvvwwwwwwwwwwwwxxxxxxxxxxyyyyyyyyyyyzzzzzzzzzz++++..+
(PID.TID 0000.0001) //    225 +..++++zzzzzzzzzzyyyyyyyyyxxxxxxxxxxxwwwwwwwwwwwvvvvvvvvvvvvuuuuuuuuuuuuuuttttttttttttttttttssssssssssssssssssssssssssssssssssssssssssssssssssssssssssssssssssssttttttttttttttttttuuuuuuuuuuuuuuvvvvvvvvvvvvwwwwwwwwwwwxxxxxxxxxxxyyyyyyyyyzzzzzzzzzz++++..+
(PID.TID 0000.0001) //    224 +..++++zzzzzzzzzyyyyyyyyyyxxxxxxxxxwwwwwwwwwwwvvvvvvvvvvvuuuuuuuuuuuuuttttttttttttttttsssssssssssssssssssssssssssssssrrrrrrrrrrrrrrrrrrsssssssssssssssssssssssssssssssttttttttttttttttuuuuuuuuuuuuuvvvvvvvvvvvwwwwwwwwwwwxxxxxxxxxyyyyyyyyyyzzzzzzzzz++++..+
(PID.TID 0000.0001) //    223 +..++++zzzzzzzzzyyyyyyyyyxxxxxxxxxwwwwwwwwwwvvvvvvvvvvvuuuuuuuuuuuuttttttttttttttssssssssssssssssssssssrrrrrrrrrrrrrrrrrrrrrrrrrrrrrrrrrrrrrrrrrrrrrrssssssssssssssssssssssttttttttttttttuuuuuuuuuuuuvvvvvvvvvvvwwwwwwwwwwxxxxxxxxxyyyyyyyyyzzzzzzzzz++++..+
(PID.TID 0000.0001) //    222 +..+++zzzzzzzzzyyyyyyyyyxxxxxxxxxwwwwwwwwwvvvvvvvvvvvuuuuuuuuuuutttttttttttttssssssssssssssssssrrrrrrrrrrrrrrrrrrrrrrrrrrrrrrrrrrrrrrrrrrrrrrrrrrrrrrrrrrrrrrsssssssssssssssssstttttttttttttuuuuuuuuuuuvvvvvvvvvvvwwwwwwwwwxxxxxxxxxyyyyyyyyyzzzzzzzzz+++..+
(PID.TID 0000.0001) //    221 +..+++zzzzzzzzzyyyyyyyyxxxxxxxxxwwwwwwwwwvvvvvvvvvvuuuuuuuuuutttttttttttttsssssssssssssssrrrrrrrrrrrrrrrrrrrrrrrrrrrrrrrqqqqqqqqqqqqrrrrrrrrrrrrrrrrrrrrrrrrrrrrrrrssssssssssssssstttttttttttttuuuuuuuuuuvvvvvvvvvvwwwwwwwwwxxxxxxxxxyyyyyyyyzzzzzzzzz+++..+
(PID.TID 0000.0001) //    220 +..+++zzzzzzzzyyyyyyyyxxxxxxxxxwwwwwwwwwvvvvvvvvvuuuuuuuuuutttttttttttssssssssssssssrrrrrrrrrrrrrrrrrrrrrqqqqqqqqqqqqqqqqqqqqqqqqqqqqqqqqqqqqqqqqqqrrrrrrrrrrrrrrrrrrrrrsssssssssssssstttttttttttuuuuuuuuuuvvvvvvvvvwwwwwwwwwxxxxxxxxxyyyyyyyyzzzzzzzz+++..+
(PID.TID 0000.0001) //    219 +..+++zzzzzzzzyyyyyyyyxxxxxxxxwwwwwwwwvvvvvvvvvuuuuuuuuuutttttttttttssssssssssssrrrrrrrrrrrrrrrrrqqqqqqqqqqqqqqqqqqqqqqqqqqqqqqqqqqqqqqqqqqqqqqqqqqqqqqqqqqrrrrrrrrrrrrrrrrrsssssssssssstttttttttttuuuuuuuuuuvvvvvvvvvwwwwwwwwxxxxxxxxyyyyyyyyzzzzzzzz+++..+
(PID.TID 0000.0001) //    218 +..+++zzzzzzzyyyyyyyyxxxxxxxxwwwwwwwwvvvvvvvvvuuuuuuuuuttttttttttssssssssssssrrrrrrrrrrrrrrrqqqqqqqqqqqqqqqqqqqqqqqqqqqqqqqqqqqqqqqqqqqqqqqqqqqqqqqqqqqqqqqqqqqqrrrrrrrrrrrrrrrssssssssssssttttttttttuuuuuuuuuvvvvvvvvvwwwwwwwwxxxxxxxxyyyyyyyyzzzzzzz+++..+
(PID.TID 0000.0001) //    217 +..+++zzzzzzzyyyyyyyyxxxxxxxwwwwwwwwvvvvvvvvuuuuuuuuuttttttttttsssssssssssrrrrrrrrrrrrrqqqqqqqqqqqqqqqqqqqqqppppppppppppppppppppppppppppppppppppqqqqqqqqqqqqqqqqqqqqqrrrrrrrrrrrrrsssssssssssttttttttttuuuuuuuuuvvvvvvvvwwwwwwwwxxxxxxxyyyyyyyyzzzzzzz+++..+
(PID.TID 0000.0001) //    216 +..+++zzzzzzzyyyyyyyxxxxxxxwwwwwwwwvvvvvvvvuuuuuuuuttttttttttssssssssssrrrrrrrrrrrrqqqqqqqqqqqqqqqqqppppppppppppppppppppppppppppppppppppppppppppppppppppqqqqqqqqqqqqqqqqqrrrrrrrrrrrrssssssssssttttttttttuuuuuuuuvvvvvvvvwwwwwwwwxxxxxxxyyyyyyyzzzzzzz+++..+
(PID.TID 0000.0001) //    215 +..+++zzzzzzyyyyyyyyxxxxxxxwwwwwwwvvvvvvvvuuuuuuuutttttttttsssssssssrrrrrrrrrrrrqqqqqqqqqqqqqqppppppppppppppppppppppppppppppppppppppppppppppppppppppppppppppppqqqqqqqqqqqqqqrrrrrrrrrrrrssssssssstttttttttuuuuuuuuvvvvvvvvwwwwwwwxxxxxxxyyyyyyyyzzzzzz+++..+
(PID.TID 0000.0001) //    214 +..++zzzzzzzyyyyyyyxxxxxxxwwwwwwwvvvvvvvvuuuuuuutttttttttsssssssssrrrrrrrrrrrqqqqqqqqqqqqqppppppppppppppppppppooooooooooooooooooooooooooooooooppppppppppppppppppppqqqqqqqqqqqqqrrrrrrrrrrrssssssssstttttttttuuuuuuuvvvvvvvvwwwwwwwxxxxxxxyyyyyyyzzzzzzz++..+
(PID.TID 0000.0001) //    213 +..++zzzzzzzyyyyyyyxxxxxxwwwwwwwvvvvvvvvuuuuuuuttttttttsssssssssrrrrrrrrrrqqqqqqqqqqqqppppppppppppppppooooooooooooooooooooooooooooooooooooooooooooooooppppppppppppppppqqqqqqqqqqqqrrrrrrrrrrsssssssssttttttttuuuuuuuvvvvvvvvwwwwwwwxxxxxxyyyyyyyzzzzzzz++..+
(PID.TID 0000.0001) //    212 +..++zzzzzzzyyyyyyxxxxxxxwwwwwwwvvvvvvvuuuuuuuttttttttssssssssrrrrrrrrrqqqqqqqqqqqpppppppppppppppoooooooooooooooooooooooooooooooooooooooooooooooooooooooooopppppppppppppppqqqqqqqqqqqrrrrrrrrrssssssssttttttttuuuuuuuvvvvvvvwwwwwwwxxxxxxxyyyyyyzzzzzzz++..+
(PID.TID 0000.0001) //    211 +..++zzzzzzyyyyyyyxxxxxxwwwwwwwvvvvvvvuuuuuuutttttttssssssssrrrrrrrrrqqqqqqqqqqpppppppppppppoooooooooooooooooooooonnnnnnnnnnnnnnnnnnnnnnnnoooooooooooooooooooooopppppppppppppqqqqqqqqqqrrrrrrrrrsssssssstttttttuuuuuuuvvvvvvvwwwwwwwxxxxxxyyyyyyyzzzzzz++..+
(PID.TID 0000.0001) //    210 +..++zzzzzzyyyyyyxxxxxxxwwwwwwvvvvvvvuuuuuuutttttttssssssssrrrrrrrrqqqqqqqqqqpppppppppppooooooooooooooooonnnnnnnnnnnnnnnnnnnnnnnnnnnnnnnnnnnnnnnnnnooooooooooooooooopppppppppppqqqqqqqqqqrrrrrrrrsssssssstttttttuuuuuuuvvvvvvvwwwwwwxxxxxxxyyyyyyzzzzzz++..+
(PID.TID 0000.0001) //    209 +..++zzzzzzyyyyyyxxxxxxwwwwwwvvvvvvvuuuuuuutttttttsssssssrrrrrrrrqqqqqqqqqpppppppppppoooooooooooooonnnnnnnnnnnnnnnnnnnnnnnnnnnnnnnnnnnnnnnnnnnnnnnnnnnnnnoooooooooooooopppppppppppqqqqqqqqqrrrrrrrrssssssstttttttuuuuuuuvvvvvvvwwwwwwxxxxxxyyyyyyzzzzzz++..+
(PID.TID 0000.0001) //    208 +..++zzzzzzyyyyyyxxxxxxwwwwwwvvvvvvuuuuuuuttttttssssssssrrrrrrrqqqqqqqqqppppppppppooooooooooooonnnnnnnnnnnnnnnnnnnnnnnnnmmmmmmmmmmmmnnnnnnnnnnnnnnnnnnnnnnnnnoooooooooooooppppppppppqqqqqqqqqrrrrrrrssssssssttttttuuuuuuuvvvvvvwwwwwwxxxxxxyyyyyyzzzzzz++..+
(PID.TID 0000.0001) //    207 +..++zzzzzzyyyyyxxxxxxwwwwwwvvvvvvuuuuuuuttttttsssssssrrrrrrrrqqqqqqqqpppppppppoooooooooooonnnnnnnnnnnnnnnnnnmmmmmmmmmmmmmmmmmmmmmmmmmmmmmmmmmmnnnnnnnnnnnnnnnnnnoooooooooooopppppppppqqqqqqqqrrrrrrrrsssssssttttttuuuuuuuvvvvvvwwwwwwxxxxxxyyyyyzzzzzz++..+
(PID.TID 0000.0001) //    206 +..++zzzzzyyyyyyxxxxxxwwwwwwvvvvvvuuuuuuttttttsssssssrrrrrrrqqqqqqqqpppppppppooooooooooonnnnnnnnnnnnnnmmmmmmmmmmmmmmmmmmmmmmmmmmmmmmmmmmmmmmmmmmmmmmmmnnnnnnnnnnnnnnooooooooooopppppppppqqqqqqqqrrrrrrrsssssssttttttuuuuuuvvvvvvwwwwwwxxxxxxyyyyyyzzzzz++..+
(PID.TID 0000.0001) //    205 +..++zzzzzyyyyyyxxxxxwwwwwwvvvvvvuuuuuuttttttsssssssrrrrrrrqqqqqqqpppppppppoooooooooonnnnnnnnnnnnnmmmmmmmmmmmmmmmmmmmmmmmmmmmmmmmmmmmmmmmmmmmmmmmmmmmmmmmmnnnnnnnnnnnnnoooooooooopppppppppqqqqqqqrrrrrrrsssssssttttttuuuuuuvvvvvvwwwwwwxxxxxyyyyyyzzzzz++..+
(PID.TID 0000.0001) //    204 +..++zzzzzyyyyyyxxxxxwwwwwwvvvvvuuuuuuttttttsssssssrrrrrrqqqqqqqqppppppppooooooooonnnnnnnnnnnnmmmmmmmmmmmmmmmmmmmllllllllllllllllllllllllllmmmmmmmmmmmmmmmmmmmnnnnnnnnnnnnoooooooooppppppppqqqqqqqqrrrrrrsssssssttttttuuuuuuvvvvvwwwwwwxxxxxyyyyyyzzzzz++..+
(PID.TID 0000.0001) //    203 +..++zzzzzyyyyyxxxxxxwwwwwvvvvvvuuuuuttttttsssssssrrrrrrqqqqqqqppppppppooooooooonnnnnnnnnnmmmmmmmmmmmmmmmmllllllllllllllllllllllllllllllllllllllllmmmmmmmmmmmmmmmmnnnnnnnnnnoooooooooppppppppqqqqqqqrrrrrrsssssssttttttuuuuuvvvvvvwwwwwxxxxxxyyyyyzzzzz++..+
(PID.TID 0000.0001) //    202 +..++zzzzzyyyyyxxxxxwwwwwwvvvvvuuuuuuttttttssssssrrrrrrqqqqqqqpppppppooooooooonnnnnnnnnnmmmmmmmmmmmmmllllllllllllllllllllllllllllllllllllllllllllllllllmmmmmmmmmmmmmnnnnnnnnnnooooooooopppppppqqqqqqqrrrrrrssssssttttttuuuuuuvvvvvwwwwwwxxxxxyyyyyzzzzz++..+
(PID.TID 0000.0001) //    201 +..++zzzzzyyyyyxxxxxwwwwwvvvvvvuuuuuttttttssssssrrrrrrqqqqqqqpppppppoooooooonnnnnnnnnmmmmmmmmmmmmllllllllllllllllllllllkkkkkkkkkkkkkkllllllllllllllllllllllmmmmmmmmmmmmnnnnnnnnnoooooooopppppppqqqqqqqrrrrrrssssssttttttuuuuuvvvvvvwwwwwxxxxxyyyyyzzzzz++..+
(PID.TID 0000.0001) //    200 +..++zzzzzyyyyyxxxxxwwwwwvvvvvuuuuuttttttssssssrrrrrrqqqqqqpppppppoooooooonnnnnnnnnmmmmmmmmmmlllllllllllllllllkkkkkkkkkkkkkkkkkkkkkkkkkkkkkkkklllllllllllllllllmmmmmmmmmmnnnnnnnnnoooooooopppppppqqqqqqrrrrrrssssssttttttuuuuuvvvvvwwwwwxxxxxyyyyyzzzzz++..+
(PID.TID 0000.0001) //    199 +..++zzzzyyyyyxxxxxwwwwwvvvvvvuuuuutttttssssssrrrrrrqqqqqqpppppppooooooonnnnnnnnmmmmmmmmmmllllllllllllllkkkkkkkkkkkkkkkkkkkkkkkkkkkkkkkkkkkkkkkkkkkkllllllllllllllmmmmmmmmmmnnnnnnnnooooooopppppppqqqqqqrrrrrrsssssstttttuuuuuvvvvvvwwwwwxxxxxyyyyyzzzz++..+
(PID.TID 0000.0001) //    198 +..+zzzzzyyyyyxxxxxwwwwwvvvvvuuuuuttttttsssssrrrrrrqqqqqqppppppoooooooonnnnnnnmmmmmmmmmmllllllllllllkkkkkkkkkkkkkkkkkkkkkkkkkkkkkkkkkkkkkkkkkkkkkkkkkkkkllllllllllllmmmmmmmmmmnnnnnnnooooooooppppppqqqqqqrrrrrrsssssttttttuuuuuvvvvvwwwwwxxxxxyyyyyzzzzz+..+
(PID.TID 0000.0001) //    197 +..+zzzzzyyyyyxxxxxwwwwwvvvvvuuuuutttttsssssrrrrrrqqqqqqppppppooooooonnnnnnnnmmmmmmmmlllllllllllkkkkkkkkkkkkkkkkkkkjjjjjjjjjjjjjjjjjjjjjjkkkkkkkkkkkkkkkkkkklllllllllllmmmmmmmmnnnnnnnnoooooooppppppqqqqqqrrrrrrssssstttttuuuuuvvvvvwwwwwxxxxxyyyyyzzzzz+..+
(PID.TID 0000.0001) //    196 +..+zzzzzyyyyyxxxxxwwwwvvvvvuuuuutttttssssssrrrrrqqqqqqppppppooooooonnnnnnnmmmmmmmmllllllllllkkkkkkkkkkkkkkkjjjjjjjjjjjjjjjjjjjjjjjjjjjjjjjjjjjjkkkkkkkkkkkkkkkllllllllllmmmmmmmmnnnnnnnoooooooppppppqqqqqqrrrrrsssssstttttuuuuuvvvvvwwwwxxxxxyyyyyzzzzz+..+
(PID.TID 0000.0001) //    195 +..+zzzzzyyyyyxxxxwwwwwvvvvvuuuuutttttsssssrrrrrqqqqqqppppppoooooonnnnnnnmmmmmmmmllllllllllkkkkkkkkkkkkkjjjjjjjjjjjjjjjjjjjjjjjjjjjjjjjjjjjjjjjjjjjjkkkkkkkkkkkkkllllllllllmmmmmmmmnnnnnnnooooooppppppqqqqqqrrrrrssssstttttuuuuuvvvvvwwwwwxxxxyyyyyzzzzz+..+
(PID.TID 0000.0001) //    194 +..+zzzzzyyyyxxxxxwwwwwvvvvuuuuutttttsssssrrrrrqqqqqqppppppoooooonnnnnnnmmmmmmmlllllllllkkkkkkkkkkkkjjjjjjjjjjjjjjjjjjjjjjjjjjjjjjjjjjjjjjjjjjjjjjjjjjjjkkkkkkkkkkkklllllllllmmmmmmmnnnnnnnooooooppppppqqqqqqrrrrrssssstttttuuuuuvvvvwwwwwxxxxxyyyyzzzzz+..+
(PID.TID 0000.0001) //    193 +..+zzzzzyyyyxxxxxwwwwvvvvvuuuuutttttsssssrrrrrqqqqqppppppoooooonnnnnnmmmmmmmmllllllllkkkkkkkkkkkjjjjjjjjjjjjjjjjjiiiiiiiiiiiiiiiiiiiiiiiijjjjjjjjjjjjjjjjjkkkkkkkkkkkllllllllmmmmmmmmnnnnnnooooooppppppqqqqqrrrrrssssstttttuuuuuvvvvvwwwwxxxxxyyyyzzzzz+..+
(PID.TID 0000.0001) //    192 +..+zzzzzyyyyxxxxxwwwwvvvvvuuuutttttsssssrrrrrqqqqqppppppoooooonnnnnnmmmmmmmllllllllkkkkkkkkkkjjjjjjjjjjjjjjiiiiiiiiiiiiiiiiiiiiiiiiiiiiiiiiiiiijjjjjjjjjjjjjjkkkkkkkkkkllllllllmmmmmmmnnnnnnooooooppppppqqqqqrrrrrssssstttttuuuuvvvvvwwwwxxxxxyyyyzzzzz+..+
(PID.TID 0000.0001) //    191 +..+zzzzzyyyyxxxxwwwwwvvvvuuuuutttttssssrrrrrqqqqqqpppppoooooonnnnnnmmmmmmmlllllllkkkkkkkkkjjjjjjjjjjjjjiiiiiiiiiiiiiiiiiiiiiiiiiiiiiiiiiiiiiiiiiiiijjjjjjjjjjjjjkkkkkkkkklllllllmmmmmmmnnnnnnoooooopppppqqqqqqrrrrrsssstttttuuuuuvvvvwwwwwxxxxyyyyzzzzz+..+
(PID.TID 0000.0001) //    190 +..+zzzzyyyyyxxxxwwwwvvvvvuuuutttttsssssrrrrrqqqqqpppppoooooonnnnnnmmmmmmllllllllkkkkkkkkjjjjjjjjjjjiiiiiiiiiiiiiiiiiiiiiiiiiiiiiiiiiiiiiiiiiiiiiiiiiiiijjjjjjjjjjjkkkkkkkkllllllllmmmmmmnnnnnnoooooopppppqqqqqrrrrrssssstttttuuuuvvvvvwwwwxxxxyyyyyzzzz+..+
(PID.TID 0000.0001) //    189 +..+zzzzyyyyyxxxxwwwwvvvvvuuuutttttssssrrrrrqqqqqpppppoooooonnnnnnmmmmmmlllllllkkkkkkkkjjjjjjjjjjiiiiiiiiiiiiiiiiihhhhhhhhhhhhhhhhhhhhhhhhiiiiiiiiiiiiiiiiijjjjjjjjjjkkkkkkkklllllllmmmmmmnnnnnnoooooopppppqqqqqrrrrrsssstttttuuuuvvvvvwwwwxxxxyyyyyzzzz+..+
(PID.TID 0000.0001) //    188 +..+zzzzyyyyxxxxxwwwwvvvvuuuuuttttsssssrrrrqqqqqpppppoooooonnnnnnmmmmmmlllllllkkkkkkkjjjjjjjjjjiiiiiiiiiiiiihhhhhhhhhhhhhhhhhhhhhhhhhhhhhhhhhhhhiiiiiiiiiiiiijjjjjjjjjjkkkkkkklllllllmmmmmmnnnnnnoooooopppppqqqqqrrrrsssssttttuuuuuvvvvwwwwxxxxxyyyyzzzz+..+
(PID.TID 0000.0001) //    187 +..+zzzzyyyyxxxxxwwwwvvvvuuuutttttssssrrrrrqqqqqpppppooooonnnnnnmmmmmmllllllkkkkkkkkjjjjjjjjiiiiiiiiiiiiihhhhhhhhhhhhhhhhhhhhhhhhhhhhhhhhhhhhhhhhhhiiiiiiiiiiiiijjjjjjjjkkkkkkkkllllllmmmmmmnnnnnnooooopppppqqqqqrrrrrsssstttttuuuuvvvvwwwwxxxxxyyyyzzzz+..+
(PID.TID 0000.0001) //    186 +..+zzzzyyyyxxxxwwwwvvvvvuuuuttttsssssrrrrqqqqqpppppooooonnnnnnmmmmmlllllllkkkkkkkjjjjjjjjiiiiiiiiiiihhhhhhhhhhhhhhhhhhhhhhhhhhhhhhhhhhhhhhhhhhhhhhhhhhiiiiiiiiiiijjjjjjjjkkkkkkklllllllmmmmmnnnnnnooooopppppqqqqqrrrrsssssttttuuuuvvvvvwwwwxxxxyyyyzzzz+..+
(PID.TID 0000.0001) //    185 +..+zzzzyyyyxxxxwwwwvvvvuuuuuttttssssrrrrrqqqqpppppooooonnnnnnmmmmmlllllllkkkkkkjjjjjjjjiiiiiiiiiiihhhhhhhhhhhhhhhhgggggggggggggggggggggghhhhhhhhhhhhhhhhiiiiiiiiiiijjjjjjjjkkkkkklllllllmmmmmnnnnnnooooopppppqqqqrrrrrssssttttuuuuuvvvvwwwwxxxxyyyyzzzz+..+
(PID.TID 0000.0001) //    184 +..+zzzzyyyyxxxxwwwwvvvvuuuutttttssssrrrrqqqqqpppppooooonnnnnmmmmmllllllkkkkkkkjjjjjjjjiiiiiiiiihhhhhhhhhhhhhhgggggggggggggggggggggggggggggggghhhhhhhhhhhhhhiiiiiiiiijjjjjjjjkkkkkkkllllllmmmmmnnnnnooooopppppqqqqqrrrrsssstttttuuuuvvvvwwwwxxxxyyyyzzzz+..+
(PID.TID 0000.0001) //    183 +..+zzzzyyyyxxxxwwwwvvvvuuuuttttssssrrrrrqqqqpppppooooonnnnnmmmmmllllllkkkkkkkjjjjjjjiiiiiiiiihhhhhhhhhhhhgggggggggggggggggggggggggggggggggggggggghhhhhhhhhhhhiiiiiiiiijjjjjjjkkkkkkkllllllmmmmmnnnnnooooopppppqqqqrrrrrssssttttuuuuvvvvwwwwxxxxyyyyzzzz+..+
(PID.TID 0000.0001) //    182 +..+zzzzyyyyxxxxwwwwvvvvuuuuttttssssrrrrqqqqqppppooooonnnnnmmmmmmlllllkkkkkkkjjjjjjjiiiiiiiihhhhhhhhhhhgggggggggggggggggggggggggggggggggggggggggggggghhhhhhhhhhhiiiiiiiijjjjjjjkkkkkkklllllmmmmmmnnnnnoooooppppqqqqqrrrrssssttttuuuuvvvvwwwwxxxxyyyyzzzz+..+
(PID.TID 0000.0001) //    181 +..+zzzzyyyyxxxxwwwvvvvuuuuttttsssssrrrrqqqqpppppooooonnnnmmmmmmlllllkkkkkkjjjjjjjiiiiiiiihhhhhhhhhhggggggggggggggggggffffffffffffffffgggggggggggggggggghhhhhhhhhhiiiiiiiijjjjjjjkkkkkklllllmmmmmmnnnnooooopppppqqqqrrrrsssssttttuuuuvvvvwwwxxxxyyyyzzzz+..+
(PID.TID 0000.0001) //    180 +..+zzzzyyyyxxxwwwwvvvvuuuuttttssssrrrrqqqqqppppooooonnnnnmmmmmlllllkkkkkkjjjjjjjiiiiiiihhhhhhhhhhggggggggggggggffffffffffffffffffffffffffffgggggggggggggghhhhhhhhhhiiiiiiijjjjjjjkkkkkklllllmmmmmnnnnnoooooppppqqqqqrrrrssssttttuuuuvvvvwwwwxxxyyyyzzzz+..+
(PID.TID 0000.0001) //    179 +..+zzzzyyyxxxxwwwwvvvvuuuuttttssssrrrrqqqqpppppoooonnnnnmmmmmlllllkkkkkkjjjjjjjiiiiiiihhhhhhhhhggggggggggggffffffffffffffffffffffffffffffffffffgggggggggggghhhhhhhhhiiiiiiijjjjjjjkkkkkklllllmmmmmnnnnnoooopppppqqqqrrrrssssttttuuuuvvvvwwwwxxxxyyyzzzz+..+
(PID.TID 0000.0001) //    178 +..+zzzzyyyxxxxwwwwvvvvuuuuttttssssrrrrqqqqppppooooonnnnmmmmmllllllkkkkkjjjjjjiiiiiiihhhhhhhhhgggggggggggffffffffffffffffffffffffffffffffffffffffffggggggggggghhhhhhhhhiiiiiiijjjjjjkkkkkllllllmmmmmnnnnoooooppppqqqqrrrrssssttttuuuuvvvvwwwwxxxxyyyzzzz+..+
(PID.TID 0000.0001) //    177 +..+zzzzyyyxxxxwwwwvvvvuuuttttssssrrrrqqqqpppppoooonnnnnmmmmmlllllkkkkkjjjjjjiiiiiiihhhhhhhhggggggggggffffffffffffffffffffffffffffffffffffffffffffffffgggggggggghhhhhhhhiiiiiiijjjjjjkkkkklllllmmmmmnnnnnoooopppppqqqqrrrrssssttttuuuvvvvwwwwxxxxyyyzzzz+..+
(PID.TID 0000.0001) //    176 +..+zzzzyyyxxxxwwwwvvvuuuuttttssssrrrrqqqqppppooooonnnnmmmmmlllllkkkkkjjjjjjiiiiiiihhhhhhhggggggggggffffffffffffffffeeeeeeeeeeeeeeeeeeeeffffffffffffffffgggggggggghhhhhhhiiiiiiijjjjjjkkkkklllllmmmmmnnnnoooooppppqqqqrrrrssssttttuuuuvvvwwwwxxxxyyyzzzz+..+
(PID.TID 0000.0001) //    175 +..+zzzyyyyxxxxwwwvvvvuuuuttttssssrrrrqqqqppppoooonnnnnmmmmlllllkkkkkkjjjjjiiiiiiihhhhhhhgggggggggffffffffffffffeeeeeeeeeeeeeeeeeeeeeeeeeeeeffffffffffffffggggggggghhhhhhhiiiiiiijjjjjkkkkkklllllmmmmnnnnnooooppppqqqqrrrrssssttttuuuuvvvvwwwxxxxyyyyzzz+..+
(PID.TID 0000.0001) //    174 +..+zzzyyyyxxxxwwwvvvvuuuutttssssrrrrqqqqppppooooonnnnmmmmmlllllkkkkkjjjjjiiiiiiihhhhhhhggggggggffffffffffffeeeeeeeeeeeeeeeeeeeeeeeeeeeeeeeeeeeeffffffffffffgggggggghhhhhhhiiiiiiijjjjjkkkkklllllmmmmmnnnnoooooppppqqqqrrrrsssstttuuuuvvvvwwwxxxxyyyyzzz+..+
(PID.TID 0000.0001) //    173 +..+zzzyyyyxxxxwwwvvvvuuuttttssssrrrrqqqqppppoooonnnnmmmmmlllllkkkkkjjjjjiiiiiihhhhhhhggggggggfffffffffffeeeeeeeeeeeeeeeeeeeeeeeeeeeeeeeeeeeeeeeeeefffffffffffgggggggghhhhhhhiiiiiijjjjjkkkkklllllmmmmmnnnnooooppppqqqqrrrrssssttttuuuvvvvwwwxxxxyyyyzzz+..+
(PID.TID 0000.0001) //    172 +..+zzzyyyyxxxwwwwvvvvuuuttttssssrrrrqqqppppooooonnnnmmmmlllllkkkkkjjjjjjiiiiihhhhhhhggggggggffffffffffeeeeeeeeeeeeeeeeeeeeeeeeeeeeeeeeeeeeeeeeeeeeeeffffffffffgggggggghhhhhhhiiiiijjjjjjkkkkklllllmmmmnnnnoooooppppqqqrrrrssssttttuuuvvvvwwwwxxxyyyyzzz+..+
(PID.TID 0000.0001) //    171 +..+zzzyyyyxxxwwwwvvvuuuuttttsssrrrrqqqqppppoooonnnnmmmmmlllllkkkkjjjjjjiiiiiihhhhhhgggggggffffffffffeeeeeeeeeeeeeeeeddddddddddddddddddeeeeeeeeeeeeeeeeffffffffffggggggghhhhhhiiiiiijjjjjjkkkklllllmmmmmnnnnooooppppqqqqrrrrsssttttuuuuvvvwwwwxxxyyyyzzz+..+
(PID.TID 0000.0001) //    170 +..+zzzyyyyxxxwwwwvvvuuuutttssssrrrrqqqqppppoooonnnnmmmmlllllkkkkkjjjjjiiiiiihhhhhhgggggggfffffffffeeeeeeeeeeeeeeddddddddddddddddddddddddddeeeeeeeeeeeeeefffffffffggggggghhhhhhiiiiiijjjjjkkkkklllllmmmmnnnnooooppppqqqqrrrrsssstttuuuuvvvwwwwxxxyyyyzzz+..+
(PID.TID 0000.0001) //    169 +..+zzzyyyyxxxwwwwvvvuuuutttssssrrrrqqqppppoooonnnnnmmmmllllkkkkkjjjjjiiiiiihhhhhhgggggggffffffffeeeeeeeeeeeeddddddddddddddddddddddddddddddddddeeeeeeeeeeeeffffffffggggggghhhhhhiiiiiijjjjjkkkkkllllmmmmnnnnnooooppppqqqrrrrsssstttuuuuvvvwwwwxxxyyyyzzz+..+
(PID.TID 0000.0001) //    168 +..+zzzyyyyxxxwwwvvvvuuuttttssssrrrqqqqppppoooonnnnmmmmlllllkkkkkjjjjjiiiiihhhhhhgggggggffffffffeeeeeeeeeeeddddddddddddddddddddddddddddddddddddddeeeeeeeeeeeffffffffggggggghhhhhhiiiiijjjjjkkkkklllllmmmmnnnnooooppppqqqqrrrssssttttuuuvvvvwwwxxxyyyyzzz+..+
(PID.TID 0000.0001) //    167 +..+zzzyyyyxxxwwwvvvvuuuttttsssrrrrqqqqppppoooonnnnmmmmllllkkkkkjjjjjiiiiihhhhhhgggggggfffffffeeeeeeeeeeeddddddddddddddddddddddddddddddddddddddddddeeeeeeeeeeefffffffggggggghhhhhhiiiiijjjjjkkkkkllllmmmmnnnnooooppppqqqqrrrrsssttttuuuvvvvwwwxxxyyyyzzz+..+
(PID.TID 0000.0001) //    166 +..+zzzyyyxxxxwwwvvvvuuuttttsssrrrrqqqqpppoooonnnnmmmmlllllkkkkjjjjjiiiiihhhhhhgggggggfffffffeeeeeeeeeeddddddddddddddddddddccccccddddddddddddddddddddeeeeeeeeeefffffffggggggghhhhhhiiiiijjjjjkkkklllllmmmmnnnnoooopppqqqqrrrrsssttttuuuvvvvwwwxxxxyyyzzz+..+
(PID.TID 0000.0001) //    165 +..+zzzyyyxxxxwwwvvvvuuutttssssrrrrqqqppppoooonnnnmmmmllllkkkkkjjjjjiiiiihhhhhgggggggfffffffeeeeeeeeedddddddddddddddccccccccccccccccccccdddddddddddddddeeeeeeeeefffffffggggggghhhhhiiiiijjjjjkkkkkllllmmmmnnnnooooppppqqqrrrrsssstttuuuvvvvwwwxxxxyyyzzz+..+
(PID.TID 0000.0001) //    164 +..+zzzyyyxxxxwwwvvvuuuutttssssrrrqqqqppppoooonnnnmmmmllllkkkkjjjjjiiiiihhhhhhggggggfffffffeeeeeeeedddddddddddddccccccccccccccccccccccccccccdddddddddddddeeeeeeeefffffffgggggghhhhhhiiiiijjjjjkkkkllllmmmmnnnnooooppppqqqqrrrsssstttuuuuvvvwwwxxxxyyyzzz+..+
(PID.TID 0000.0001) //    163 +..+zzzyyyxxxxwwwvvvuuuutttssssrrrqqqqpppoooonnnnmmmmllllkkkkkjjjjiiiiihhhhhhggggggfffffffeeeeeeeeddddddddddddccccccccccccccccccccccccccccccccddddddddddddeeeeeeeefffffffgggggghhhhhhiiiiijjjjkkkkkllllmmmmnnnnoooopppqqqqrrrsssstttuuuuvvvwwwxxxxyyyzzz+..+
(PID.TID 0000.0001) //    162 +..+zzzyyyxxxxwwwvvvuuuutttsssrrrrqqqqpppoooonnnnmmmmllllkkkkjjjjjiiiiihhhhhggggggfffffffeeeeeeeeddddddddddccccccccccccccccccccccccccccccccccccccddddddddddeeeeeeeefffffffgggggghhhhhiiiiijjjjjkkkkllllmmmmnnnnoooopppqqqqrrrrssstttuuuuvvvwwwxxxxyyyzzz+..+
(PID.TID 0000.0001) //    161 +..+zzzyyyxxxwwwwvvvuuuttttsssrrrrqqqppppoooonnnmmmmlllllkkkkjjjjiiiiihhhhhggggggfffffffeeeeeeedddddddddddccccccccccccccccccccccccccccccccccccccccdddddddddddeeeeeeefffffffgggggghhhhhiiiiijjjjkkkklllllmmmmnnnooooppppqqqrrrrsssttttuuuvvvwwwwxxxyyyzzz+..+
(PID.TID 0000.0001) //    160 +..+zzzyyyxxxwwwwvvvuuuttttsssrrrrqqqppppooonnnnmmmmllllkkkkjjjjjiiiiihhhhhgggggfffffffeeeeeeeddddddddddccccccccccccccccccccccccccccccccccccccccccccddddddddddeeeeeeefffffffggggghhhhhiiiiijjjjjkkkkllllmmmmnnnnoooppppqqqrrrrsssttttuuuvvvwwwwxxxyyyzzz+..+
(PID.TID 0000.0001) //    159 +..+zzzyyyxxxwwwwvvvuuutttssssrrrqqqqpppoooonnnnmmmmllllkkkkjjjjiiiiihhhhhggggggffffffeeeeeeedddddddddcccccccccccccccccbbbbbbbbbbbbbbcccccccccccccccccdddddddddeeeeeeeffffffgggggghhhhhiiiiijjjjkkkkllllmmmmnnnnoooopppqqqqrrrsssstttuuuvvvwwwwxxxyyyzzz+..+
(PID.TID 0000.0001) //    158 +..+zzzyyyxxxwwwvvvvuuutttssssrrrqqqqpppoooonnnnmmmllllkkkkkjjjjiiiiihhhhhgggggffffffeeeeeeedddddddddccccccccccccccbbbbbbbbbbbbbbbbbbbbbbccccccccccccccdddddddddeeeeeeeffffffggggghhhhhiiiiijjjjkkkkkllllmmmnnnnoooopppqqqqrrrsssstttuuuvvvvwwwxxxyyyzzz+..+
(PID.TID 0000.0001) //    157 +..+zzzyyyxxxwwwvvvvuuutttssssrrrqqqppppoooonnnmmmmllllkkkkjjjjjiiiihhhhhgggggffffffeeeeeeedddddddddccccccccccccbbbbbbbbbbbbbbbbbbbbbbbbbbbbccccccccccccdddddddddeeeeeeeffffffggggghhhhhiiiijjjjjkkkkllllmmmmnnnooooppppqqqrrrsssstttuuuvvvvwwwxxxyyyzzz+..+
(PID.TID 0000.0001) //    156 +..+zzzyyyxxxwwwvvvvuuutttsssrrrrqqqppppooonnnnmmmmllllkkkkjjjjiiiiihhhhhgggggffffffeeeeeeddddddddccccccccccccbbbbbbbbbbbbbbbbbbbbbbbbbbbbbbbbccccccccccccddddddddeeeeeeffffffggggghhhhhiiiiijjjjkkkkllllmmmmnnnnoooppppqqqrrrrssstttuuuvvvvwwwxxxyyyzzz+..+
(PID.TID 0000.0001) //    155 +..+zzzyyyxxxwwwvvvuuuutttsssrrrrqqqppppooonnnnmmmmlllkkkkkjjjjiiiihhhhhgggggffffffeeeeeeedddddddcccccccccccbbbbbbbbbbbbbbbbbbbbbbbbbbbbbbbbbbbbcccccccccccdddddddeeeeeeeffffffggggghhhhhiiiijjjjkkkkklllmmmmnnnnoooppppqqqrrrrssstttuuuuvvvwwwxxxyyyzzz+..+
(PID.TID 0000.0001) //    154 +..+zzzyyyxxxwwwvvvuuuutttsssrrrqqqqpppoooonnnnmmmllllkkkkjjjjiiiiihhhhhgggggfffffeeeeeeedddddddcccccccccccbbbbbbbbbbbbbbbbbbbbbbbbbbbbbbbbbbbbbbcccccccccccdddddddeeeeeeefffffggggghhhhhiiiiijjjjkkkkllllmmmnnnnoooopppqqqqrrrssstttuuuuvvvwwwxxxyyyzzz+..+
(PID.TID 0000.0001) //    153 +..+zzzyyyxxxwwwvvvuuuttttsssrrrqqqqpppoooonnnmmmmllllkkkkjjjjiiiiihhhhgggggffffffeeeeeedddddddccccccccccbbbbbbbbbbbbbbbbbbbbbbbbbbbbbbbbbbbbbbbbbbccccccccccdddddddeeeeeeffffffggggghhhhiiiiijjjjkkkkllllmmmmnnnoooopppqqqqrrrsssttttuuuvvvwwwxxxyyyzzz+..+
(PID.TID 0000.0001) //    152 +..+zzzyyyxxxwwwvvvuuuttttsssrrrqqqqpppooonnnnmmmmllllkkkkjjjjiiiihhhhhgggggfffffeeeeeeddddddddcccccccccbbbbbbbbbbbbbbbbbbbbbbbbbbbbbbbbbbbbbbbbbbbbcccccccccddddddddeeeeeefffffggggghhhhhiiiijjjjkkkkllllmmmmnnnnooopppqqqqrrrsssttttuuuvvvwwwxxxyyyzzz+..+
(PID.TID 0000.0001) //    151 +..+zzzyyyxxxwwwvvvuuuttttsssrrrqqqppppooonnnnmmmmlllkkkkjjjjiiiiihhhhgggggffffffeeeeeedddddddcccccccccbbbbbbbbbbbbbbbbaaaaaaaaaaaaaabbbbbbbbbbbbbbbbcccccccccdddddddeeeeeeffffffggggghhhhiiiiijjjjkkkklllmmmmnnnnoooppppqqqrrrsssttttuuuvvvwwwxxxyyyzzz+..+
(PID.TID 0000.0001) //    150 +..+zzzyyyxxxwwwvvvuuutttssssrrrqqqppppooonnnnmmmllllkkkkjjjjiiiihhhhhgggggfffffeeeeeedddddddcccccccccbbbbbbbbbbbbbbaaaaaaaaaaaaaaaaaaaabbbbbbbbbbbbbbcccccccccdddddddeeeeeefffffggggghhhhhiiiijjjjkkkkllllmmmnnnnoooppppqqqrrrsssstttuuuvvvwwwxxxyyyzzz+..+
(PID.TID 0000.0001) //    149 +..+zzzyyyxxxwwwvvvuuutttssssrrrqqqpppoooonnnmmmmllllkkkkjjjjiiiihhhhhggggffffffeeeeeeddddddcccccccccbbbbbbbbbbbbbaaaaaaaaaaaaaaaaaaaaaaaabbbbbbbbbbbbbcccccccccddddddeeeeeeffffffgggghhhhhiiiijjjjkkkkllllmmmmnnnoooopppqqqrrrsssstttuuuvvvwwwxxxyyyzzz+..+
(PID.TID 0000.0001) //    148 +..+zzzyyyxxxwwwvvvuuutttsssrrrrqqqpppoooonnnmmmmllllkkkkjjjjiiiihhhhgggggfffffeeeeeedddddddccccccccbbbbbbbbbbbbaaaaaaaaaaaaaaaaaaaaaaaaaaaabbbbbbbbbbbbccccccccdddddddeeeeeefffffggggghhhhiiiijjjjkkkkllllmmmmnnnoooopppqqqrrrrssstttuuuvvvwwwxxxyyyzzz+..+
(PID.TID 0000.0001) //    147 +..+zzzyyyxxxwwwvvvuuutttsssrrrrqqqpppoooonnnmmmmlllkkkkjjjjiiiiihhhhgggggfffffeeeeeeddddddccccccccbbbbbbbbbbbaaaaaaaaaaaaaaaaaaaaaaaaaaaaaaaabbbbbbbbbbbccccccccddddddeeeeeefffffggggghhhhiiiiijjjjkkkklllmmmmnnnoooopppqqqrrrrssstttuuuvvvwwwxxxyyyzzz+..+
(PID.TID 0000.0001) //    146 +..+zzzyyyxxxwwwvvvuuutttsssrrrqqqqpppooonnnnmmmmlllkkkkjjjjiiiihhhhhggggfffffeeeeeedddddddcccccccbbbbbbbbbbbaaaaaaaaaaaaaaaaaaaaaaaaaaaaaaaaaabbbbbbbbbbbcccccccdddddddeeeeeefffffgggghhhhhiiiijjjjkkkklllmmmmnnnnooopppqqqqrrrssstttuuuvvvwwwxxxyyyzzz+..+
(PID.TID 0000.0001) //    145 +..+zzzyyyxxxwwwvvvuuutttsssrrrqqqqpppooonnnnmmmllllkkkkjjjjiiiihhhhgggggfffffeeeeeeddddddccccccccbbbbbbbbbbaaaaaaaaaaaaaaaaaaaaaaaaaaaaaaaaaaaabbbbbbbbbbccccccccddddddeeeeeefffffggggghhhhiiiijjjjkkkkllllmmmnnnnooopppqqqqrrrssstttuuuvvvwwwxxxyyyzzz+..+
(PID.TID 0000.0001) //    144 +..+zzzyyyxxxwwwvvvuuutttsssrrrqqqqpppooonnnnmmmllllkkkkjjjjiiiihhhhgggggfffffeeeeeddddddccccccccbbbbbbbbbbaaaaaaaaaaaaaaaaaaaaaaaaaaaaaaaaaaaaaabbbbbbbbbbccccccccddddddeeeeefffffggggghhhhiiiijjjjkkkkllllmmmnnnnooopppqqqqrrrssstttuuuvvvwwwxxxyyyzzz+..+
(PID.TID 0000.0001) //    143 +..+zzzyyyxxxwwwvvvuuutttsssrrrqqqppppooonnnnmmmllllkkkjjjjiiiihhhhhggggfffffeeeeeeddddddcccccccbbbbbbbbbbaaaaaaaaaaaaaaaaaaaaaaaaaaaaaaaaaaaaaaaabbbbbbbbbbcccccccddddddeeeeeefffffgggghhhhhiiiijjjjkkkllllmmmnnnnoooppppqqqrrrssstttuuuvvvwwwxxxyyyzzz+..+
(PID.TID 0000.0001) //    142 +..+zzzyyyxxxwwwvvvuuutttsssrrrqqqppppooonnnmmmmllllkkkjjjjiiiihhhhhggggfffffeeeeedddddddcccccccbbbbbbbbbaaaaaaaaaaaaaaaaaaaaaaaaaaaaaaaaaaaaaaaaaabbbbbbbbbcccccccdddddddeeeeefffffgggghhhhhiiiijjjjkkkllllmmmmnnnoooppppqqqrrrssstttuuuvvvwwwxxxyyyzzz+..+
(PID.TID 0000.0001) //    141 +..+zzzyyyxxxwwwvvvuuutttsssrrrqqqpppoooonnnmmmmlllkkkkjjjjiiiihhhhgggggfffffeeeeeddddddcccccccbbbbbbbbbaaaaaaaaaaaaaaaaaaaaaaaaaaaaaaaaaaaaaaaaaaaabbbbbbbbbcccccccddddddeeeeefffffggggghhhhiiiijjjjkkkklllmmmmnnnoooopppqqqrrrssstttuuuvvvwwwxxxyyyzzz+..+
(PID.TID 0000.0001) //    140 +..+zzzyyxxxwwwvvvvuuutttsssrrrqqqpppoooonnnmmmmlllkkkkjjjjiiiihhhhgggggfffffeeeeeddddddcccccccbbbbbbbbbaaaaaaaaaaaaaaaaa----------aaaaaaaaaaaaaaaaabbbbbbbbbcccccccddddddeeeeefffffggggghhhhiiiijjjjkkkklllmmmmnnnoooopppqqqrrrssstttuuuvvvvwwwxxxyyzzz+..+
(PID.TID 0000.0001) //    139 +..+zzyyyxxxwwwvvvuuuutttsssrrrqqqpppoooonnnmmmmlllkkkkjjjjiiiihhhhggggfffffeeeeeedddddcccccccbbbbbbbbbaaaaaaaaaaaaaaaa--------------aaaaaaaaaaaaaaaabbbbbbbbbcccccccdddddeeeeeefffffgggghhhhiiiijjjjkkkklllmmmmnnnoooopppqqqrrrssstttuuuuvvvwwwxxxyyyzz+..+
(PID.TID 0000.0001) //    138 +..+zzyyyxxxwwwvvvuuuttttsssrrrqqqpppoooonnnmmmllllkkkkjjjjiiiihhhhggggfffffeeeeeddddddcccccccbbbbbbbbbaaaaaaaaaaaaaa------------------aaaaaaaaaaaaaabbbbbbbbbcccccccddddddeeeeefffffgggghhhhiiiijjjjkkkkllllmmmnnnoooopppqqqrrrsssttttuuuvvvwwwxxxyyyzz+..+
(PID.TID 0000.0001) //    137 +..+zzyyyxxxwwwvvvuuutttssssrrrqqqpppooonnnnmmmllllkkkkjjjiiiihhhhhggggfffffeeeeeddddddcccccccbbbbbbbbaaaaaaaaaaaaaa--------------------aaaaaaaaaaaaaabbbbbbbbcccccccddddddeeeeefffffgggghhhhhiiiijjjkkkkllllmmmnnnnooopppqqqrrrsssstttuuuvvvwwwxxxyyyzz+..+
(PID.TID 0000.0001) //    136 +..+zzyyyxxxwwwvvvuuutttssssrrrqqqpppooonnnnmmmllllkkkjjjjiiiihhhhgggggfffffeeeeeddddddccccccbbbbbbbbbaaaaaaaaaaaaa----------------------aaaaaaaaaaaaabbbbbbbbbccccccddddddeeeeefffffggggghhhhiiiijjjjkkkllllmmmnnnnooopppqqqrrrsssstttuuuvvvwwwxxxyyyzz+..+
(PID.TID 0000.0001) //    135 +..+zzyyyxxxwwwvvvuuutttssssrrrqqqpppooonnnnmmmllllkkkjjjjiiiihhhhgggggffffeeeeeedddddcccccccbbbbbbbbaaaaaaaaaaaaa------------------------aaaaaaaaaaaaabbbbbbbbcccccccdddddeeeeeeffffggggghhhhiiiijjjjkkkllllmmmnnnnooopppqqqrrrsssstttuuuvvvwwwxxxyyyzz+..+
(PID.TID 0000.0001) //    134 +..+zzyyyxxxwwwvvvuuutttsssrrrrqqqpppooonnnnmmmllllkkkjjjjiiiihhhhgggggffffeeeeeddddddcccccccbbbbbbbbaaaaaaaaaaaa--------------------------aaaaaaaaaaaabbbbbbbbcccccccddddddeeeeeffffggggghhhhiiiijjjjkkkllllmmmnnnnooopppqqqrrrrssstttuuuvvvwwwxxxyyyzz+..+
(PID.TID 0000.0001) //    133 +..+zzyyyxxxwwwvvvuuutttsssrrrrqqqpppooonnnnmmmllllkkkjjjjiiiihhhhggggfffffeeeeeddddddcccccccbbbbbbbbaaaaaaaaaaaa--------------------------aaaaaaaaaaaabbbbbbbbcccccccddddddeeeeefffffgggghhhhiiiijjjjkkkllllmmmnnnnooopppqqqrrrrssstttuuuvvvwwwxxxyyyzz+..+
(PID.TID 0000.0001) //    132 +..+zzyyyxxxwwwvvvuuutttsssrrrrqqqpppooonnnnmmmlllkkkkjjjjiiiihhhhggggfffffeeeeeddddddccccccbbbbbbbbaaaaaaaaaaaa----------------------------aaaaaaaaaaaabbbbbbbbccccccddddddeeeeefffffgggghhhhiiiijjjjkkkklllmmmnnnnooopppqqqrrrrssstttuuuvvvwwwxxxyyyzz+..+
(PID.TID 0000.0001) //    131 +..+zzyyyxxxwwwvvvuuutttsssrrrqqqqpppooonnnmmmmlllkkkkjjjjiiiihhhhggggfffffeeeeeddddddccccccbbbbbbbbaaaaaaaaaaaa----------------------------aaaaaaaaaaaabbbbbbbbccccccddddddeeeeefffffgggghhhhiiiijjjjkkkklllmmmmnnnooopppqqqqrrrssstttuuuvvvwwwxxxyyyzz+..+
(PID.TID 0000.0001) //    130 +..+zzyyyxxxwwwvvvuuutttsssrrrqqqqpppooonnnmmmmlllkkkkjjjjiiiihhhhggggfffffeeeeeddddddccccccbbbbbbbbaaaaaaaaaaa------------------------------aaaaaaaaaaabbbbbbbbccccccddddddeeeeefffffgggghhhhiiiijjjjkkkklllmmmmnnnooopppqqqqrrrssstttuuuvvvwwwxxxyyyzz+..+
(PID.TID 0000.0001) //    129 +..+zzyyyxxxwwwvvvuuutttsssrrrqqqqpppooonnnmmmmlllkkkkjjjjiiiihhhhggggfffffeeeeeddddddccccccbbbbbbbbaaaaaaaaaaa------------------------------aaaaaaaaaaabbbbbbbbccccccddddddeeeeefffffgggghhhhiiiijjjjkkkklllmmmmnnnooopppqqqqrrrssstttuuuvvvwwwxxxyyyzz+..+
(PID.TID 0000.0001) //    128 +..+zzyyyxxxwwwvvvuuutttsssrrrqqqqpppooonnnmmmmlllkkkkjjjjiiiihhhhggggfffffeeeeedddddcccccccbbbbbbbbaaaaaaaaaaa------------------------------aaaaaaaaaaabbbbbbbbcccccccdddddeeeeefffffgggghhhhiiiijjjjkkkklllmmmmnnnooopppqqqqrrrssstttuuuvvvwwwxxxyyyzz+..+
(PID.TID 0000.0001) //    127 +..+zzyyyxxxwwwvvvuuutttsssrrrqqqqpppooonnnmmmmlllkkkkjjjjiiiihhhhggggfffffeeeeedddddcccccccbbbbbbbbaaaaaaaaaaa------------------------------aaaaaaaaaaabbbbbbbbcccccccdddddeeeeefffffgggghhhhiiiijjjjkkkklllmmmmnnnooopppqqqqrrrssstttuuuvvvwwwxxxyyyzz+..+
(PID.TID 0000.0001) //    126 +..+zzyyyxxxwwwvvvuuutttsssrrrqqqqpppooonnnmmmmlllkkkkjjjjiiiihhhhggggfffffeeeeedddddcccccccbbbbbbbbaaaaaaaaaaa------------------------------aaaaaaaaaaabbbbbbbbcccccccdddddeeeeefffffgggghhhhiiiijjjjkkkklllmmmmnnnooopppqqqqrrrssstttuuuvvvwwwxxxyyyzz+..+
(PID.TID 0000.0001) //    125 +..+zzyyyxxxwwwvvvuuutttsssrrrqqqqpppooonnnmmmmlllkkkkjjjjiiiihhhhggggfffffeeeeedddddcccccccbbbbbbbbaaaaaaaaaaa------------------------------aaaaaaaaaaabbbbbbbbcccccccdddddeeeeefffffgggghhhhiiiijjjjkkkklllmmmmnnnooopppqqqqrrrssstttuuuvvvwwwxxxyyyzz+..+
(PID.TID 0000.0001) //    124 +..+zzyyyxxxwwwvvvuuutttsssrrrqqqqpppooonnnmmmmlllkkkkjjjjiiiihhhhggggfffffeeeeedddddcccccccbbbbbbbbaaaaaaaaaaa------------------------------aaaaaaaaaaabbbbbbbbcccccccdddddeeeeefffffgggghhhhiiiijjjjkkkklllmmmmnnnooopppqqqqrrrssstttuuuvvvwwwxxxyyyzz+..+
(PID.TID 0000.0001) //    123 +..+zzyyyxxxwwwvvvuuutttsssrrrqqqqpppooonnnmmmmlllkkkkjjjjiiiihhhhggggfffffeeeeedddddcccccccbbbbbbbbaaaaaaaaaaa------------------------------aaaaaaaaaaabbbbbbbbcccccccdddddeeeeefffffgggghhhhiiiijjjjkkkklllmmmmnnnooopppqqqqrrrssstttuuuvvvwwwxxxyyyzz+..+
(PID.TID 0000.0001) //    122 +..+zzyyyxxxwwwvvvuuutttsssrrrqqqqpppooonnnmmmmlllkkkkjjjjiiiihhhhggggfffffeeeeedddddcccccccbbbbbbbbaaaaaaaaaaa------------------------------aaaaaaaaaaabbbbbbbbcccccccdddddeeeeefffffgggghhhhiiiijjjjkkkklllmmmmnnnooopppqqqqrrrssstttuuuvvvwwwxxxyyyzz+..+
(PID.TID 0000.0001) //    121 +..+zzyyyxxxwwwvvvuuutttsssrrrqqqqpppooonnnmmmmlllkkkkjjjjiiiihhhhggggfffffeeeeeddddddccccccbbbbbbbbaaaaaaaaaaa------------------------------aaaaaaaaaaabbbbbbbbccccccddddddeeeeefffffgggghhhhiiiijjjjkkkklllmmmmnnnooopppqqqqrrrssstttuuuvvvwwwxxxyyyzz+..+
(PID.TID 0000.0001) //    120 +..+zzyyyxxxwwwvvvuuutttsssrrrqqqqpppooonnnmmmmlllkkkkjjjjiiiihhhhggggfffffeeeeeddddddccccccbbbbbbbbaaaaaaaaaaa------------------------------aaaaaaaaaaabbbbbbbbccccccddddddeeeeefffffgggghhhhiiiijjjjkkkklllmmmmnnnooopppqqqqrrrssstttuuuvvvwwwxxxyyyzz+..+
(PID.TID 0000.0001) //    119 +..+zzyyyxxxwwwvvvuuutttsssrrrqqqqpppooonnnmmmmlllkkkkjjjjiiiihhhhggggfffffeeeeeddddddccccccbbbbbbbbaaaaaaaaaaaa----------------------------aaaaaaaaaaaabbbbbbbbccccccddddddeeeeefffffgggghhhhiiiijjjjkkkklllmmmmnnnooopppqqqqrrrssstttuuuvvvwwwxxxyyyzz+..+
(PID.TID 0000.0001) //    118 +..+zzyyyxxxwwwvvvuuutttsssrrrrqqqpppooonnnnmmmlllkkkkjjjjiiiihhhhggggfffffeeeeeddddddccccccbbbbbbbbaaaaaaaaaaaa----------------------------aaaaaaaaaaaabbbbbbbbccccccddddddeeeeefffffgggghhhhiiiijjjjkkkklllmmmnnnnooopppqqqrrrrssstttuuuvvvwwwxxxyyyzz+..+
(PID.TID 0000.0001) //    117 +..+zzyyyxxxwwwvvvuuutttsssrrrrqqqpppooonnnnmmmllllkkkjjjjiiiihhhhggggfffffeeeeeddddddcccccccbbbbbbbbaaaaaaaaaaaa--------------------------aaaaaaaaaaaabbbbbbbbcccccccddddddeeeeefffffgggghhhhiiiijjjjkkkllllmmmnnnnooopppqqqrrrrssstttuuuvvvwwwxxxyyyzz+..+
(PID.TID 0000.0001) //    116 +..+zzyyyxxxwwwvvvuuutttsssrrrrqqqpppooonnnnmmmllllkkkjjjjiiiihhhhgggggffffeeeeeddddddcccccccbbbbbbbbaaaaaaaaaaaa--------------------------aaaaaaaaaaaabbbbbbbbcccccccddddddeeeeeffffggggghhhhiiiijjjjkkkllllmmmnnnnooopppqqqrrrrssstttuuuvvvwwwxxxyyyzz+..+
(PID.TID 0000.0001) //    115 +..+zzyyyxxxwwwvvvuuutttssssrrrqqqpppooonnnnmmmllllkkkjjjjiiiihhhhgggggffffeeeeeedddddcccccccbbbbbbbbaaaaaaaaaaaaa------------------------aaaaaaaaaaaaabbbbbbbbcccccccdddddeeeeeeffffggggghhhhiiiijjjjkkkllllmmmnnnnooopppqqqrrrsssstttuuuvvvwwwxxxyyyzz+..+
(PID.TID 0000.0001) //    114 +..+zzyyyxxxwwwvvvuuutttssssrrrqqqpppooonnnnmmmllllkkkjjjjiiiihhhhgggggfffffeeeeeddddddccccccbbbbbbbbbaaaaaaaaaaaaa----------------------aaaaaaaaaaaaabbbbbbbbbccccccddddddeeeeefffffggggghhhhiiiijjjjkkkllllmmmnnnnooopppqqqrrrsssstttuuuvvvwwwxxxyyyzz+..+
(PID.TID 0000.0001) //    113 +..+zzyyyxxxwwwvvvuuutttssssrrrqqqpppooonnnnmmmllllkkkkjjjiiiihhhhhggggfffffeeeeeddddddcccccccbbbbbbbbaaaaaaaaaaaaaa--------------------aaaaaaaaaaaaaabbbbbbbbcccccccddddddeeeeefffffgggghhhhhiiiijjjkkkkllllmmmnnnnooopppqqqrrrsssstttuuuvvvwwwxxxyyyzz+..+
(PID.TID 0000.0001) //    112 +..+zzyyyxxxwwwvvvuuuttttsssrrrqqqpppoooonnnmmmllllkkkkjjjjiiiihhhhggggfffffeeeeeddddddcccccccbbbbbbbbbaaaaaaaaaaaaaa------------------aaaaaaaaaaaaaabbbbbbbbbcccccccddddddeeeeefffffgggghhhhiiiijjjjkkkkllllmmmnnnoooopppqqqrrrsssttttuuuvvvwwwxxxyyyzz+..+
(PID.TID 0000.0001) //    111 +..+zzyyyxxxwwwvvvuuuutttsssrrrqqqpppoooonnnmmmmlllkkkkjjjjiiiihhhhggggfffffeeeeeedddddcccccccbbbbbbbbbaaaaaaaaaaaaaaaa--------------aaaaaaaaaaaaaaaabbbbbbbbbcccccccdddddeeeeeefffffgggghhhhiiiijjjjkkkklllmmmmnnnoooopppqqqrrrssstttuuuuvvvwwwxxxyyyzz+..+
(PID.TID 0000.0001) //    110 +..+zzzyyxxxwwwvvvvuuutttsssrrrqqqpppoooonnnmmmmlllkkkkjjjjiiiihhhhgggggfffffeeeeeddddddcccccccbbbbbbbbbaaaaaaaaaaaaaaaaa----------aaaaaaaaaaaaaaaaabbbbbbbbbcccccccddddddeeeeefffffggggghhhhiiiijjjjkkkklllmmmmnnnoooopppqqqrrrssstttuuuvvvvwwwxxxyyzzz+..+
(PID.TID 0000.0001) //    109 +..+zzzyyyxxxwwwvvvuuutttsssrrrqqqpppoooonnnmmmmlllkkkkjjjjiiiihhhhgggggfffffeeeeeddddddcccccccbbbbbbbbbaaaaaaaaaaaaaaaaaaaaaaaaaaaaaaaaaaaaaaaaaaaabbbbbbbbbcccccccddddddeeeeefffffggggghhhhiiiijjjjkkkklllmmmmnnnoooopppqqqrrrssstttuuuvvvwwwxxxyyyzzz+..+
(PID.TID 0000.0001) //    108 +..+zzzyyyxxxwwwvvvuuutttsssrrrqqqppppooonnnmmmmllllkkkjjjjiiiihhhhhggggfffffeeeeedddddddcccccccbbbbbbbbbaaaaaaaaaaaaaaaaaaaaaaaaaaaaaaaaaaaaaaaaaabbbbbbbbbcccccccdddddddeeeeefffffgggghhhhhiiiijjjjkkkllllmmmmnnnoooppppqqqrrrssstttuuuvvvwwwxxxyyyzzz+..+
(PID.TID 0000.0001) //    107 +..+zzzyyyxxxwwwvvvuuutttsssrrrqqqppppooonnnnmmmllllkkkjjjjiiiihhhhhggggfffffeeeeeeddddddcccccccbbbbbbbbbbaaaaaaaaaaaaaaaaaaaaaaaaaaaaaaaaaaaaaaaabbbbbbbbbbcccccccddddddeeeeeefffffgggghhhhhiiiijjjjkkkllllmmmnnnnoooppppqqqrrrssstttuuuvvvwwwxxxyyyzzz+..+
(PID.TID 0000.0001) //    106 +..+zzzyyyxxxwwwvvvuuutttsssrrrqqqqpppooonnnnmmmllllkkkkjjjjiiiihhhhgggggfffffeeeeeddddddccccccccbbbbbbbbbbaaaaaaaaaaaaaaaaaaaaaaaaaaaaaaaaaaaaaabbbbbbbbbbccccccccddddddeeeeefffffggggghhhhiiiijjjjkkkkllllmmmnnnnooopppqqqqrrrssstttuuuvvvwwwxxxyyyzzz+..+
(PID.TID 0000.0001) //    105 +..+zzzyyyxxxwwwvvvuuutttsssrrrqqqqpppooonnnnmmmllllkkkkjjjjiiiihhhhgggggfffffeeeeeeddddddccccccccbbbbbbbbbbaaaaaaaaaaaaaaaaaaaaaaaaaaaaaaaaaaaabbbbbbbbbbccccccccddddddeeeeeefffffggggghhhhiiiijjjjkkkkllllmmmnnnnooopppqqqqrrrssstttuuuvvvwwwxxxyyyzzz+..+
(PID.TID 0000.0001) //    104 +..+zzzyyyxxxwwwvvvuuutttsssrrrqqqqpppooonnnnmmmmlllkkkkjjjjiiiihhhhhggggfffffeeeeeedddddddcccccccbbbbbbbbbbbaaaaaaaaaaaaaaaaaaaaaaaaaaaaaaaaaabbbbbbbbbbbcccccccdddddddeeeeeefffffgggghhhhhiiiijjjjkkkklllmmmmnnnnooopppqqqqrrrssstttuuuvvvwwwxxxyyyzzz+..+
(PID.TID 0000.0001) //    103 +..+zzzyyyxxxwwwvvvuuutttsssrrrrqqqpppoooonnnmmmmlllkkkkjjjjiiiiihhhhgggggfffffeeeeeeddddddccccccccbbbbbbbbbbbaaaaaaaaaaaaaaaaaaaaaaaaaaaaaaaabbbbbbbbbbbccccccccddddddeeeeeefffffggggghhhhiiiiijjjjkkkklllmmmmnnnoooopppqqqrrrrssstttuuuvvvwwwxxxyyyzzz+..+
(PID.TID 0000.0001) //    102 +..+zzzyyyxxxwwwvvvuuutttsssrrrrqqqpppoooonnnmmmmllllkkkkjjjjiiiihhhhgggggfffffeeeeeedddddddccccccccbbbbbbbbbbbbaaaaaaaaaaaaaaaaaaaaaaaaaaaabbbbbbbbbbbbccccccccdddddddeeeeeefffffggggghhhhiiiijjjjkkkkllllmmmmnnnoooopppqqqrrrrssstttuuuvvvwwwxxxyyyzzz+..+
(PID.TID 0000.0001) //    101 +..+zzzyyyxxxwwwvvvuuutttssssrrrqqqpppoooonnnmmmmllllkkkkjjjjiiiihhhhhggggffffffeeeeeeddddddcccccccccbbbbbbbbbbbbbaaaaaaaaaaaaaaaaaaaaaaaabbbbbbbbbbbbbcccccccccddddddeeeeeeffffffgggghhhhhiiiijjjjkkkkllllmmmmnnnoooopppqqqrrrsssstttuuuvvvwwwxxxyyyzzz+..+
(PID.TID 0000.0001) //    100 +..+zzzyyyxxxwwwvvvuuutttssssrrrqqqppppooonnnnmmmllllkkkkjjjjiiiihhhhhgggggfffffeeeeeedddddddcccccccccbbbbbbbbbbbbbbaaaaaaaaaaaaaaaaaaaabbbbbbbbbbbbbbcccccccccdddddddeeeeeefffffggggghhhhhiiiijjjjkkkkllllmmmnnnnoooppppqqqrrrsssstttuuuvvvwwwxxxyyyzzz+..+
(PID.TID 0000.0001) //     99 +..+zzzyyyxxxwwwvvvuuuttttsssrrrqqqppppooonnnnmmmmlllkkkkjjjjiiiiihhhhgggggffffffeeeeeedddddddcccccccccbbbbbbbbbbbbbbbbaaaaaaaaaaaaaabbbbbbbbbbbbbbbbcccccccccdddddddeeeeeeffffffggggghhhhiiiiijjjjkkkklllmmmmnnnnoooppppqqqrrrsssttttuuuvvvwwwxxxyyyzzz+..+
(PID.TID 0000.0001) //     98 +..+zzzyyyxxxwwwvvvuuuttttsssrrrqqqqpppooonnnnmmmmllllkkkkjjjjiiiihhhhhgggggfffffeeeeeeddddddddcccccccccbbbbbbbbbbbbbbbbbbbbbbbbbbbbbbbbbbbbbbbbbbbbcccccccccddddddddeeeeeefffffggggghhhhhiiiijjjjkkkkllllmmmmnnnnooopppqqqqrrrsssttttuuuvvvwwwxxxyyyzzz+..+
(PID.TID 0000.0001) //     97 +..+zzzyyyxxxwwwvvvuuuttttsssrrrqqqqpppoooonnnmmmmllllkkkkjjjjiiiiihhhhgggggffffffeeeeeedddddddccccccccccbbbbbbbbbbbbbbbbbbbbbbbbbbbbbbbbbbbbbbbbbbccccccccccdddddddeeeeeeffffffggggghhhhiiiiijjjjkkkkllllmmmmnnnoooopppqqqqrrrsssttttuuuvvvwwwxxxyyyzzz+..+
(PID.TID 0000.0001) //     96 +..+zzzyyyxxxwwwvvvuuuutttsssrrrqqqqpppoooonnnnmmmllllkkkkjjjjiiiiihhhhhgggggfffffeeeeeeedddddddcccccccccccbbbbbbbbbbbbbbbbbbbbbbbbbbbbbbbbbbbbbbcccccccccccdddddddeeeeeeefffffggggghhhhhiiiiijjjjkkkkllllmmmnnnnoooopppqqqqrrrssstttuuuuvvvwwwxxxyyyzzz+..+
(PID.TID 0000.0001) //     95 +..+zzzyyyxxxwwwvvvuuuutttsssrrrrqqqppppooonnnnmmmmlllkkkkkjjjjiiiihhhhhgggggffffffeeeeeeedddddddcccccccccccbbbbbbbbbbbbbbbbbbbbbbbbbbbbbbbbbbbbcccccccccccdddddddeeeeeeeffffffggggghhhhhiiiijjjjkkkkklllmmmmnnnnoooppppqqqrrrrssstttuuuuvvvwwwxxxyyyzzz+..+
(PID.TID 0000.0001) //     94 +..+zzzyyyxxxwwwvvvvuuutttsssrrrrqqqppppooonnnnmmmmllllkkkkjjjjiiiiihhhhhgggggffffffeeeeeeddddddddccccccccccccbbbbbbbbbbbbbbbbbbbbbbbbbbbbbbbbccccccccccccddddddddeeeeeeffffffggggghhhhhiiiiijjjjkkkkllllmmmmnnnnoooppppqqqrrrrssstttuuuvvvvwwwxxxyyyzzz+..+
(PID.TID 0000.0001) //     93 +..+zzzyyyxxxwwwvvvvuuutttssssrrrqqqppppoooonnnmmmmllllkkkkjjjjjiiiihhhhhgggggffffffeeeeeeedddddddddccccccccccccbbbbbbbbbbbbbbbbbbbbbbbbbbbbccccccccccccdddddddddeeeeeeeffffffggggghhhhhiiiijjjjjkkkkllllmmmmnnnooooppppqqqrrrsssstttuuuvvvvwwwxxxyyyzzz+..+
(PID.TID 0000.0001) //     92 +..+zzzyyyxxxwwwvvvvuuutttssssrrrqqqqpppoooonnnnmmmllllkkkkkjjjjiiiiihhhhhgggggffffffeeeeeeedddddddddccccccccccccccbbbbbbbbbbbbbbbbbbbbbbccccccccccccccdddddddddeeeeeeeffffffggggghhhhhiiiiijjjjkkkkkllllmmmnnnnoooopppqqqqrrrsssstttuuuvvvvwwwxxxyyyzzz+..+
(PID.TID 0000.0001) //     91 +..+zzzyyyxxxwwwwvvvuuutttssssrrrqqqqpppoooonnnnmmmmllllkkkkjjjjiiiiihhhhhggggggffffffeeeeeeedddddddddcccccccccccccccccbbbbbbbbbbbbbbcccccccccccccccccdddddddddeeeeeeeffffffgggggghhhhhiiiiijjjjkkkkllllmmmmnnnnoooopppqqqqrrrsssstttuuuvvvwwwwxxxyyyzzz+..+
(PID.TID 0000.0001) //     90 +..+zzzyyyxxxwwwwvvvuuuttttsssrrrrqqqppppooonnnnmmmmllllkkkkjjjjjiiiiihhhhhgggggfffffffeeeeeeeddddddddddccccccccccccccccccccccccccccccccccccccccccccddddddddddeeeeeeefffffffggggghhhhhiiiiijjjjjkkkkllllmmmmnnnnoooppppqqqrrrrsssttttuuuvvvwwwwxxxyyyzzz+..+
(PID.TID 0000.0001) //     89 +..+zzzyyyxxxwwwwvvvuuuttttsssrrrrqqqppppoooonnnmmmmlllllkkkkjjjjiiiiihhhhhggggggfffffffeeeeeeedddddddddddccccccccccccccccccccccccccccccccccccccccdddddddddddeeeeeeefffffffgggggghhhhhiiiiijjjjkkkklllllmmmmnnnooooppppqqqrrrrsssttttuuuvvvwwwwxxxyyyzzz+..+
(PID.TID 0000.0001) //     88 +..+zzzyyyxxxxwwwvvvuuuutttsssrrrrqqqqpppoooonnnnmmmmllllkkkkjjjjjiiiiihhhhhggggggfffffffeeeeeeeeddddddddddccccccccccccccccccccccccccccccccccccccddddddddddeeeeeeeefffffffgggggghhhhhiiiiijjjjjkkkkllllmmmmnnnnoooopppqqqqrrrrssstttuuuuvvvwwwxxxxyyyzzz+..+
(PID.TID 0000.0001) //     87 +..+zzzyyyxxxxwwwvvvuuuutttssssrrrqqqqpppoooonnnnmmmmllllkkkkkjjjjiiiiihhhhhhggggggfffffffeeeeeeeeddddddddddddccccccccccccccccccccccccccccccccddddddddddddeeeeeeeefffffffgggggghhhhhhiiiiijjjjkkkkkllllmmmmnnnnoooopppqqqqrrrsssstttuuuuvvvwwwxxxxyyyzzz+..+
(PID.TID 0000.0001) //     86 +..+zzzyyyxxxxwwwvvvuuuutttssssrrrqqqqppppoooonnnnmmmmllllkkkkjjjjjiiiiihhhhhhggggggfffffffeeeeeeeedddddddddddddccccccccccccccccccccccccccccdddddddddddddeeeeeeeefffffffgggggghhhhhhiiiiijjjjjkkkkllllmmmmnnnnooooppppqqqqrrrsssstttuuuuvvvwwwxxxxyyyzzz+..+
(PID.TID 0000.0001) //     85 +..+zzzyyyxxxxwwwvvvvuuutttssssrrrrqqqppppoooonnnnmmmmllllkkkkkjjjjjiiiiihhhhhgggggggfffffffeeeeeeeeedddddddddddddddccccccccccccccccccccdddddddddddddddeeeeeeeeefffffffggggggghhhhhiiiiijjjjjkkkkkllllmmmmnnnnooooppppqqqrrrrsssstttuuuvvvvwwwxxxxyyyzzz+..+
(PID.TID 0000.0001) //     84 +..+zzzyyyxxxxwwwvvvvuuuttttsssrrrrqqqqpppoooonnnnmmmmlllllkkkkjjjjjiiiiihhhhhhgggggggfffffffeeeeeeeeeeddddddddddddddddddddccccccddddddddddddddddddddeeeeeeeeeefffffffggggggghhhhhhiiiiijjjjjkkkklllllmmmmnnnnoooopppqqqqrrrrsssttttuuuvvvvwwwxxxxyyyzzz+..+
(PID.TID 0000.0001) //     83 +..+zzzyyyyxxxwwwvvvvuuuttttsssrrrrqqqqppppoooonnnnmmmmllllkkkkkjjjjjiiiiihhhhhhgggggggfffffffeeeeeeeeeeeddddddddddddddddddddddddddddddddddddddddddeeeeeeeeeeefffffffggggggghhhhhhiiiiijjjjjkkkkkllllmmmmnnnnooooppppqqqqrrrrsssttttuuuvvvvwwwxxxyyyyzzz+..+
(PID.TID 0000.0001) //     82 +..+zzzyyyyxxxwwwvvvvuuuttttssssrrrqqqqppppoooonnnnmmmmlllllkkkkkjjjjjiiiiihhhhhhgggggggffffffffeeeeeeeeeeeddddddddddddddddddddddddddddddddddddddeeeeeeeeeeeffffffffggggggghhhhhhiiiiijjjjjkkkkklllllmmmmnnnnooooppppqqqqrrrssssttttuuuvvvvwwwxxxyyyyzzz+..+
(PID.TID 0000.0001) //     81 +..+zzzyyyyxxxwwwwvvvuuuutttssssrrrrqqqppppoooonnnnnmmmmllllkkkkkjjjjjiiiiiihhhhhhgggggggffffffffeeeeeeeeeeeeddddddddddddddddddddddddddddddddddeeeeeeeeeeeeffffffffggggggghhhhhhiiiiiijjjjjkkkkkllllmmmmnnnnnooooppppqqqrrrrsssstttuuuuvvvwwwwxxxyyyyzzz+..+
(PID.TID 0000.0001) //     80 +..+zzzyyyyxxxwwwwvvvuuuutttssssrrrrqqqqppppoooonnnnmmmmlllllkkkkkjjjjjiiiiiihhhhhhgggggggfffffffffeeeeeeeeeeeeeeddddddddddddddddddddddddddeeeeeeeeeeeeeefffffffffggggggghhhhhhiiiiiijjjjjkkkkklllllmmmmnnnnooooppppqqqqrrrrsssstttuuuuvvvwwwwxxxyyyyzzz+..+
(PID.TID 0000.0001) //     79 +..+zzzyyyyxxxwwwwvvvuuuuttttsssrrrrqqqqppppoooonnnnmmmmmlllllkkkkjjjjjjiiiiiihhhhhhgggggggffffffffffeeeeeeeeeeeeeeeeddddddddddddddddddeeeeeeeeeeeeeeeeffffffffffggggggghhhhhhiiiiiijjjjjjkkkklllllmmmmmnnnnooooppppqqqqrrrrsssttttuuuuvvvwwwwxxxyyyyzzz+..+
(PID.TID 0000.0001) //     78 +..+zzzyyyyxxxwwwwvvvvuuuttttssssrrrrqqqppppooooonnnnmmmmlllllkkkkkjjjjjjiiiiihhhhhhhggggggggffffffffffeeeeeeeeeeeeeeeeeeeeeeeeeeeeeeeeeeeeeeeeeeeeeeffffffffffgggggggghhhhhhhiiiiijjjjjjkkkkklllllmmmmnnnnoooooppppqqqrrrrssssttttuuuvvvvwwwwxxxyyyyzzz+..+
(PID.TID 0000.0001) //     77 +..+zzzyyyyxxxxwwwvvvvuuuttttssssrrrrqqqqppppoooonnnnmmmmmlllllkkkkkjjjjjiiiiiihhhhhhhggggggggfffffffffffeeeeeeeeeeeeeeeeeeeeeeeeeeeeeeeeeeeeeeeeeefffffffffffgggggggghhhhhhhiiiiiijjjjjkkkkklllllmmmmmnnnnooooppppqqqqrrrrssssttttuuuvvvvwwwxxxxyyyyzzz+..+
(PID.TID 0000.0001) //     76 +..+zzzyyyyxxxxwwwvvvvuuuutttssssrrrrqqqqppppooooonnnnmmmmmlllllkkkkkjjjjjiiiiiiihhhhhhhggggggggffffffffffffeeeeeeeeeeeeeeeeeeeeeeeeeeeeeeeeeeeeffffffffffffgggggggghhhhhhhiiiiiiijjjjjkkkkklllllmmmmmnnnnoooooppppqqqqrrrrsssstttuuuuvvvvwwwxxxxyyyyzzz+..+
(PID.TID 0000.0001) //     75 +..+zzzyyyyxxxxwwwvvvvuuuuttttssssrrrrqqqqppppoooonnnnnmmmmlllllkkkkkkjjjjjiiiiiiihhhhhhhgggggggggffffffffffffffeeeeeeeeeeeeeeeeeeeeeeeeeeeeffffffffffffffggggggggghhhhhhhiiiiiiijjjjjkkkkkklllllmmmmnnnnnooooppppqqqqrrrrssssttttuuuuvvvvwwwxxxxyyyyzzz+..+
(PID.TID 0000.0001) //     74 +..+zzzzyyyxxxxwwwwvvvuuuuttttssssrrrrqqqqppppooooonnnnmmmmmlllllkkkkkjjjjjjiiiiiiihhhhhhhggggggggggffffffffffffffffeeeeeeeeeeeeeeeeeeeeffffffffffffffffgggggggggghhhhhhhiiiiiiijjjjjjkkkkklllllmmmmmnnnnoooooppppqqqqrrrrssssttttuuuuvvvwwwwxxxxyyyzzzz+..+
(PID.TID 0000.0001) //     73 +..+zzzzyyyxxxxwwwwvvvvuuuttttssssrrrrqqqqpppppoooonnnnnmmmmmlllllkkkkkjjjjjjiiiiiiihhhhhhhhggggggggggffffffffffffffffffffffffffffffffffffffffffffffffgggggggggghhhhhhhhiiiiiiijjjjjjkkkkklllllmmmmmnnnnnoooopppppqqqqrrrrssssttttuuuvvvvwwwwxxxxyyyzzzz+..+
(PID.TID 0000.0001) //     72 +..+zzzzyyyxxxxwwwwvvvvuuuuttttssssrrrrqqqqppppooooonnnnmmmmmllllllkkkkkjjjjjjiiiiiiihhhhhhhhhgggggggggggffffffffffffffffffffffffffffffffffffffffffggggggggggghhhhhhhhhiiiiiiijjjjjjkkkkkllllllmmmmmnnnnoooooppppqqqqrrrrssssttttuuuuvvvvwwwwxxxxyyyzzzz+..+
(PID.TID 0000.0001) //     71 +..+zzzzyyyxxxxwwwwvvvvuuuuttttssssrrrrqqqqpppppoooonnnnnmmmmmlllllkkkkkkjjjjjjjiiiiiiihhhhhhhhhggggggggggggffffffffffffffffffffffffffffffffffffgggggggggggghhhhhhhhhiiiiiiijjjjjjjkkkkkklllllmmmmmnnnnnoooopppppqqqqrrrrssssttttuuuuvvvvwwwwxxxxyyyzzzz+..+
(PID.TID 0000.0001) //     70 +..+zzzzyyyyxxxwwwwvvvvuuuuttttssssrrrrqqqqqppppooooonnnnnmmmmmlllllkkkkkkjjjjjjjiiiiiiihhhhhhhhhhggggggggggggggffffffffffffffffffffffffffffgggggggggggggghhhhhhhhhhiiiiiiijjjjjjjkkkkkklllllmmmmmnnnnnoooooppppqqqqqrrrrssssttttuuuuvvvvwwwwxxxyyyyzzzz+..+
(PID.TID 0000.0001) //     69 +..+zzzzyyyyxxxxwwwvvvvuuuuttttsssssrrrrqqqqpppppooooonnnnmmmmmmlllllkkkkkkjjjjjjjiiiiiiiihhhhhhhhhhggggggggggggggggggffffffffffffffffgggggggggggggggggghhhhhhhhhhiiiiiiiijjjjjjjkkkkkklllllmmmmmmnnnnooooopppppqqqqrrrrsssssttttuuuuvvvvwwwxxxxyyyyzzzz+..+
(PID.TID 0000.0001) //     68 +..+zzzzyyyyxxxxwwwwvvvvuuuuttttssssrrrrqqqqqppppooooonnnnnmmmmmmlllllkkkkkkkjjjjjjjiiiiiiiihhhhhhhhhhhgggggggggggggggggggggggggggggggggggggggggggggghhhhhhhhhhhiiiiiiiijjjjjjjkkkkkkklllllmmmmmmnnnnnoooooppppqqqqqrrrrssssttttuuuuvvvvwwwwxxxxyyyyzzzz+..+
(PID.TID 0000.0001) //     67 +..+zzzzyyyyxxxxwwwwvvvvuuuuttttssssrrrrrqqqqpppppooooonnnnnmmmmmllllllkkkkkkkjjjjjjjiiiiiiiiihhhhhhhhhhhhgggggggggggggggggggggggggggggggggggggggghhhhhhhhhhhhiiiiiiiiijjjjjjjkkkkkkkllllllmmmmmnnnnnooooopppppqqqqrrrrrssssttttuuuuvvvvwwwwxxxxyyyyzzzz+..+
(PID.TID 0000.0001) //     66 +..+zzzzyyyyxxxxwwwwvvvvuuuutttttssssrrrrqqqqqpppppooooonnnnnmmmmmllllllkkkkkkkjjjjjjjjiiiiiiiiihhhhhhhhhhhhhhgggggggggggggggggggggggggggggggghhhhhhhhhhhhhhiiiiiiiiijjjjjjjjkkkkkkkllllllmmmmmnnnnnooooopppppqqqqqrrrrsssstttttuuuuvvvvwwwwxxxxyyyyzzzz+..+
(PID.TID 0000.0001) //     65 +..+zzzzyyyyxxxxwwwwvvvvuuuuuttttssssrrrrrqqqqpppppooooonnnnnnmmmmmlllllllkkkkkkjjjjjjjjiiiiiiiiiiihhhhhhhhhhhhhhhhgggggggggggggggggggggghhhhhhhhhhhhhhhhiiiiiiiiiiijjjjjjjjkkkkkklllllllmmmmmnnnnnnooooopppppqqqqrrrrrssssttttuuuuuvvvvwwwwxxxxyyyyzzzz+..+
(PID.TID 0000.0001) //     64 +..+zzzzyyyyxxxxwwwwvvvvvuuuuttttsssssrrrrqqqqqpppppooooonnnnnnmmmmmlllllllkkkkkkkjjjjjjjjiiiiiiiiiiihhhhhhhhhhhhhhhhhhhhhhhhhhhhhhhhhhhhhhhhhhhhhhhhhhiiiiiiiiiiijjjjjjjjkkkkkkklllllllmmmmmnnnnnnooooopppppqqqqqrrrrsssssttttuuuuvvvvvwwwwxxxxyyyyzzzz+..+
(PID.TID 0000.0001) //     63 +..+zzzzyyyyxxxxxwwwwvvvvuuuutttttssssrrrrrqqqqqpppppooooonnnnnnmmmmmmllllllkkkkkkkkjjjjjjjjiiiiiiiiiiiiihhhhhhhhhhhhhhhhhhhhhhhhhhhhhhhhhhhhhhhhhhiiiiiiiiiiiiijjjjjjjjkkkkkkkkllllllmmmmmmnnnnnnooooopppppqqqqqrrrrrsssstttttuuuuvvvvwwwwxxxxxyyyyzzzz+..+
(PID.TID 0000.0001) //     62 +..+zzzzyyyyxxxxxwwwwvvvvuuuuuttttsssssrrrrqqqqqpppppoooooonnnnnnmmmmmmlllllllkkkkkkkjjjjjjjjjjiiiiiiiiiiiiihhhhhhhhhhhhhhhhhhhhhhhhhhhhhhhhhhhhiiiiiiiiiiiiijjjjjjjjjjkkkkkkklllllllmmmmmmnnnnnnoooooopppppqqqqqrrrrsssssttttuuuuuvvvvwwwwxxxxxyyyyzzzz+..+
(PID.TID 0000.0001) //     61 +..+zzzzyyyyyxxxxwwwwvvvvvuuuutttttssssrrrrrqqqqqpppppoooooonnnnnnmmmmmmlllllllkkkkkkkkjjjjjjjjjjiiiiiiiiiiiiiiiiihhhhhhhhhhhhhhhhhhhhhhhhiiiiiiiiiiiiiiiiijjjjjjjjjjkkkkkkkklllllllmmmmmmnnnnnnoooooopppppqqqqqrrrrrsssstttttuuuuvvvvvwwwwxxxxyyyyyzzzz+..+
(PID.TID 0000.0001) //     60 +..+zzzzyyyyyxxxxwwwwvvvvvuuuutttttsssssrrrrrqqqqqpppppoooooonnnnnnmmmmmmllllllllkkkkkkkkjjjjjjjjjjjiiiiiiiiiiiiiiiiiiiiiiiiiiiiiiiiiiiiiiiiiiiiiiiiiiiijjjjjjjjjjjkkkkkkkkllllllllmmmmmmnnnnnnoooooopppppqqqqqrrrrrssssstttttuuuuvvvvvwwwwxxxxyyyyyzzzz+..+
(PID.TID 0000.0001) //     59 +..+zzzzzyyyyxxxxwwwwwvvvvuuuuutttttssssrrrrrqqqqqqpppppoooooonnnnnnmmmmmmmlllllllkkkkkkkkkjjjjjjjjjjjjjiiiiiiiiiiiiiiiiiiiiiiiiiiiiiiiiiiiiiiiiiiiijjjjjjjjjjjjjkkkkkkkkklllllllmmmmmmmnnnnnnoooooopppppqqqqqqrrrrrsssstttttuuuuuvvvvwwwwwxxxxyyyyzzzzz+..+
(PID.TID 0000.0001) //     58 +..+zzzzzyyyyxxxxxwwwwvvvvvuuuutttttsssssrrrrrqqqqqppppppoooooonnnnnnmmmmmmmllllllllkkkkkkkkkkjjjjjjjjjjjjjjiiiiiiiiiiiiiiiiiiiiiiiiiiiiiiiiiiiijjjjjjjjjjjjjjkkkkkkkkkkllllllllmmmmmmmnnnnnnooooooppppppqqqqqrrrrrssssstttttuuuuvvvvvwwwwxxxxxyyyyzzzzz+..+
(PID.TID 0000.0001) //     57 +..+zzzzzyyyyxxxxxwwwwvvvvvuuuuutttttsssssrrrrrqqqqqppppppoooooonnnnnnmmmmmmmmllllllllkkkkkkkkkkkjjjjjjjjjjjjjjjjjiiiiiiiiiiiiiiiiiiiiiiiijjjjjjjjjjjjjjjjjkkkkkkkkkkkllllllllmmmmmmmmnnnnnnooooooppppppqqqqqrrrrrssssstttttuuuuuvvvvvwwwwxxxxxyyyyzzzzz+..+
(PID.TID 0000.0001) //     56 +..+zzzzzyyyyxxxxxwwwwwvvvvuuuuutttttsssssrrrrrqqqqqqppppppoooooonnnnnnnmmmmmmmlllllllllkkkkkkkkkkkkjjjjjjjjjjjjjjjjjjjjjjjjjjjjjjjjjjjjjjjjjjjjjjjjjjjjkkkkkkkkkkkklllllllllmmmmmmmnnnnnnnooooooppppppqqqqqqrrrrrssssstttttuuuuuvvvvwwwwwxxxxxyyyyzzzzz+..+
(PID.TID 0000.0001) //     55 +..+zzzzzyyyyyxxxxwwwwwvvvvvuuuuutttttsssssrrrrrqqqqqqppppppoooooonnnnnnnmmmmmmmmllllllllllkkkkkkkkkkkkkjjjjjjjjjjjjjjjjjjjjjjjjjjjjjjjjjjjjjjjjjjjjkkkkkkkkkkkkkllllllllllmmmmmmmmnnnnnnnooooooppppppqqqqqqrrrrrssssstttttuuuuuvvvvvwwwwwxxxxyyyyyzzzzz+..+
(PID.TID 0000.0001) //     54 +..+zzzzzyyyyyxxxxxwwwwvvvvvuuuuutttttssssssrrrrrqqqqqqppppppooooooonnnnnnnmmmmmmmmllllllllllkkkkkkkkkkkkkkkjjjjjjjjjjjjjjjjjjjjjjjjjjjjjjjjjjjjkkkkkkkkkkkkkkkllllllllllmmmmmmmmnnnnnnnoooooooppppppqqqqqqrrrrrsssssstttttuuuuuvvvvvwwwwxxxxxyyyyyzzzzz+..+
(PID.TID 0000.0001) //     53 +..+zzzzzyyyyyxxxxxwwwwwvvvvvuuuuutttttsssssrrrrrrqqqqqqppppppooooooonnnnnnnnmmmmmmmmlllllllllllkkkkkkkkkkkkkkkkkkkjjjjjjjjjjjjjjjjjjjjjjkkkkkkkkkkkkkkkkkkklllllllllllmmmmmmmmnnnnnnnnoooooooppppppqqqqqqrrrrrrssssstttttuuuuuvvvvvwwwwwxxxxxyyyyyzzzzz+..+
(PID.TID 0000.0001) //     52 +..+zzzzzyyyyyxxxxxwwwwwvvvvvuuuuuttttttsssssrrrrrrqqqqqqppppppoooooooonnnnnnnmmmmmmmmmmllllllllllllkkkkkkkkkkkkkkkkkkkkkkkkkkkkkkkkkkkkkkkkkkkkkkkkkkkkllllllllllllmmmmmmmmmmnnnnnnnooooooooppppppqqqqqqrrrrrrsssssttttttuuuuuvvvvvwwwwwxxxxxyyyyyzzzzz+..+
(PID.TID 0000.0001) //     51 +..++zzzzyyyyyxxxxxwwwwwvvvvvvuuuuutttttssssssrrrrrrqqqqqqpppppppooooooonnnnnnnnmmmmmmmmmmllllllllllllllkkkkkkkkkkkkkkkkkkkkkkkkkkkkkkkkkkkkkkkkkkkkllllllllllllllmmmmmmmmmmnnnnnnnnooooooopppppppqqqqqqrrrrrrsssssstttttuuuuuvvvvvvwwwwwxxxxxyyyyyzzzz++..+
(PID.TID 0000.0001) //     50 +..++zzzzzyyyyyxxxxxwwwwwvvvvvuuuuuttttttssssssrrrrrrqqqqqqpppppppoooooooonnnnnnnnnmmmmmmmmmmlllllllllllllllllkkkkkkkkkkkkkkkkkkkkkkkkkkkkkkkklllllllllllllllllmmmmmmmmmmnnnnnnnnnoooooooopppppppqqqqqqrrrrrrssssssttttttuuuuuvvvvvwwwwwxxxxxyyyyyzzzzz++..+
(PID.TID 0000.0001) //     49 +..++zzzzzyyyyyxxxxxwwwwwvvvvvvuuuuuttttttssssssrrrrrrqqqqqqqpppppppoooooooonnnnnnnnnmmmmmmmmmmmmllllllllllllllllllllllkkkkkkkkkkkkkkllllllllllllllllllllllmmmmmmmmmmmmnnnnnnnnnoooooooopppppppqqqqqqqrrrrrrssssssttttttuuuuuvvvvvvwwwwwxxxxxyyyyyzzzzz++..+
(PID.TID 0000.0001) //     48 +..++zzzzzyyyyyxxxxxwwwwwwvvvvvuuuuuuttttttssssssrrrrrrqqqqqqqpppppppooooooooonnnnnnnnnnmmmmmmmmmmmmmllllllllllllllllllllllllllllllllllllllllllllllllllmmmmmmmmmmmmmnnnnnnnnnnooooooooopppppppqqqqqqqrrrrrrssssssttttttuuuuuuvvvvvwwwwwwxxxxxyyyyyzzzzz++..+
(PID.TID 0000.0001) //     47 +..++zzzzzyyyyyxxxxxxwwwwwvvvvvvuuuuuttttttsssssssrrrrrrqqqqqqqppppppppooooooooonnnnnnnnnnmmmmmmmmmmmmmmmmllllllllllllllllllllllllllllllllllllllllmmmmmmmmmmmmmmmmnnnnnnnnnnoooooooooppppppppqqqqqqqrrrrrrsssssssttttttuuuuuvvvvvvwwwwwxxxxxxyyyyyzzzzz++..+
(PID.TID 0000.0001) //     46 +..++zzzzzyyyyyyxxxxxwwwwwwvvvvvuuuuuuttttttsssssssrrrrrrqqqqqqqqppppppppooooooooonnnnnnnnnnnnmmmmmmmmmmmmmmmmmmmllllllllllllllllllllllllllmmmmmmmmmmmmmmmmmmmnnnnnnnnnnnnoooooooooppppppppqqqqqqqqrrrrrrsssssssttttttuuuuuuvvvvvwwwwwwxxxxxyyyyyyzzzzz++..+
(PID.TID 0000.0001) //     45 +..++zzzzzyyyyyyxxxxxwwwwwwvvvvvvuuuuuuttttttsssssssrrrrrrrqqqqqqqpppppppppoooooooooonnnnnnnnnnnnnmmmmmmmmmmmmmmmmmmmmmmmmmmmmmmmmmmmmmmmmmmmmmmmmmmmmmmmmnnnnnnnnnnnnnoooooooooopppppppppqqqqqqqrrrrrrrsssssssttttttuuuuuuvvvvvvwwwwwwxxxxxyyyyyyzzzzz++..+
(PID.TID 0000.0001) //     44 +..++zzzzzyyyyyyxxxxxxwwwwwwvvvvvvuuuuuuttttttsssssssrrrrrrrqqqqqqqqpppppppppooooooooooonnnnnnnnnnnnnnmmmmmmmmmmmmmmmmmmmmmmmmmmmmmmmmmmmmmmmmmmmmmmmmnnnnnnnnnnnnnnooooooooooopppppppppqqqqqqqqrrrrrrrsssssssttttttuuuuuuvvvvvvwwwwwwxxxxxxyyyyyyzzzzz++..+
(PID.TID 0000.0001) //     43 +..++zzzzzzyyyyyxxxxxxwwwwwwvvvvvvuuuuuuuttttttsssssssrrrrrrrrqqqqqqqqpppppppppoooooooooooonnnnnnnnnnnnnnnnnnmmmmmmmmmmmmmmmmmmmmmmmmmmmmmmmmmmnnnnnnnnnnnnnnnnnnoooooooooooopppppppppqqqqqqqqrrrrrrrrsssssssttttttuuuuuuuvvvvvvwwwwwwxxxxxxyyyyyzzzzzz++..+
(PID.TID 0000.0001) //     42 +..++zzzzzzyyyyyyxxxxxxwwwwwwvvvvvvuuuuuuuttttttssssssssrrrrrrrqqqqqqqqqppppppppppooooooooooooonnnnnnnnnnnnnnnnnnnnnnnnnmmmmmmmmmmmmnnnnnnnnnnnnnnnnnnnnnnnnnoooooooooooooppppppppppqqqqqqqqqrrrrrrrssssssssttttttuuuuuuuvvvvvvwwwwwwxxxxxxyyyyyyzzzzzz++..+
(PID.TID 0000.0001) //     41 +..++zzzzzzyyyyyyxxxxxxwwwwwwvvvvvvvuuuuuuutttttttsssssssrrrrrrrrqqqqqqqqqpppppppppppoooooooooooooonnnnnnnnnnnnnnnnnnnnnnnnnnnnnnnnnnnnnnnnnnnnnnnnnnnnnnoooooooooooooopppppppppppqqqqqqqqqrrrrrrrrssssssstttttttuuuuuuuvvvvvvvwwwwwwxxxxxxyyyyyyzzzzzz++..+
(PID.TID 0000.0001) //     40 +..++zzzzzzyyyyyyxxxxxxxwwwwwwvvvvvvvuuuuuuutttttttssssssssrrrrrrrrqqqqqqqqqqpppppppppppooooooooooooooooonnnnnnnnnnnnnnnnnnnnnnnnnnnnnnnnnnnnnnnnnnooooooooooooooooopppppppppppqqqqqqqqqqrrrrrrrrsssssssstttttttuuuuuuuvvvvvvvwwwwwwxxxxxxxyyyyyyzzzzzz++..+
(PID.TID 0000.0001) //     39 +..++zzzzzzyyyyyyyxxxxxxwwwwwwwvvvvvvvuuuuuuutttttttssssssssrrrrrrrrrqqqqqqqqqqpppppppppppppoooooooooooooooooooooonnnnnnnnnnnnnnnnnnnnnnnnoooooooooooooooooooooopppppppppppppqqqqqqqqqqrrrrrrrrrsssssssstttttttuuuuuuuvvvvvvvwwwwwwwxxxxxxyyyyyyyzzzzzz++..+
(PID.TID 0000.0001) //     38 +..++zzzzzzzyyyyyyxxxxxxxwwwwwwwvvvvvvvuuuuuuuttttttttssssssssrrrrrrrrrqqqqqqqqqqqpppppppppppppppoooooooooooooooooooooooooooooooooooooooooooooooooooooooooopppppppppppppppqqqqqqqqqqqrrrrrrrrrssssssssttttttttuuuuuuuvvvvvvvwwwwwwwxxxxxxxyyyyyyzzzzzzz++..+
(PID.TID 0000.0001) //     37 +..++zzzzzzzyyyyyyyxxxxxxwwwwwwwvvvvvvvvuuuuuuuttttttttsssssssssrrrrrrrrrrqqqqqqqqqqqqppppppppppppppppooooooooooooooooooooooooooooooooooooooooooooooooppppppppppppppppqqqqqqqqqqqqrrrrrrrrrrsssssssssttttttttuuuuuuuvvvvvvvvwwwwwwwxxxxxxyyyyyyyzzzzzzz++..+
(PID.TID 0000.0001) //     36 +..++zzzzzzzyyyyyyyxxxxxxxwwwwwwwvvvvvvvvuuuuuuutttttttttsssssssssrrrrrrrrrrrqqqqqqqqqqqqqppppppppppppppppppppooooooooooooooooooooooooooooooooppppppppppppppppppppqqqqqqqqqqqqqrrrrrrrrrrrssssssssstttttttttuuuuuuuvvvvvvvvwwwwwwwxxxxxxxyyyyyyyzzzzzzz++..+
(PID.TID 0000.0001) //     35 +..+++zzzzzzyyyyyyyyxxxxxxxwwwwwwwvvvvvvvvuuuuuuuutttttttttsssssssssrrrrrrrrrrrrqqqqqqqqqqqqqqppppppppppppppppppppppppppppppppppppppppppppppppppppppppppppppppqqqqqqqqqqqqqqrrrrrrrrrrrrssssssssstttttttttuuuuuuuuvvvvvvvvwwwwwwwxxxxxxxyyyyyyyyzzzzzz+++..+
(PID.TID 0000.0001) //     34 +..+++zzzzzzzyyyyyyyxxxxxxxwwwwwwwwvvvvvvvvuuuuuuuuttttttttttssssssssssrrrrrrrrrrrrqqqqqqqqqqqqqqqqqppppppppppppppppppppppppppppppppppppppppppppppppppppqqqqqqqqqqqqqqqqqrrrrrrrrrrrrssssssssssttttttttttuuuuuuuuvvvvvvvvwwwwwwwwxxxxxxxyyyyyyyzzzzzzz+++..+
(PID.TID 0000.0001) //     33 +..+++zzzzzzzyyyyyyyyxxxxxxxwwwwwwwwvvvvvvvvuuuuuuuuuttttttttttsssssssssssrrrrrrrrrrrrrqqqqqqqqqqqqqqqqqqqqqppppppppppppppppppppppppppppppppppppqqqqqqqqqqqqqqqqqqqqqrrrrrrrrrrrrrsssssssssssttttttttttuuuuuuuuuvvvvvvvvwwwwwwwwxxxxxxxyyyyyyyyzzzzzzz+++..+
(PID.TID 0000.0001) //     32 +..+++zzzzzzzyyyyyyyyxxxxxxxxwwwwwwwwvvvvvvvvvuuuuuuuuuttttttttttssssssssssssrrrrrrrrrrrrrrrqqqqqqqqqqqqqqqqqqqqqqqqqqqqqqqqqqqqqqqqqqqqqqqqqqqqqqqqqqqqqqqqqqqqrrrrrrrrrrrrrrrssssssssssssttttttttttuuuuuuuuuvvvvvvvvvwwwwwwwwxxxxxxxxyyyyyyyyzzzzzzz+++..+
(PID.TID 0000.0001) //     31 +..+++zzzzzzzzyyyyyyyyxxxxxxxxwwwwwwwwvvvvvvvvvuuuuuuuuuutttttttttttssssssssssssrrrrrrrrrrrrrrrrrqqqqqqqqqqqqqqqqqqqqqqqqqqqqqqqqqqqqqqqqqqqqqqqqqqqqqqqqqqrrrrrrrrrrrrrrrrrsssssssssssstttttttttttuuuuuuuuuuvvvvvvvvvwwwwwwwwxxxxxxxxyyyyyyyyzzzzzzzz+++..+
(PID.TID 0000.0001) //     30 +..+++zzzzzzzzyyyyyyyyxxxxxxxxxwwwwwwwwwvvvvvvvvvuuuuuuuuuutttttttttttssssssssssssssrrrrrrrrrrrrrrrrrrrrrqqqqqqqqqqqqqqqqqqqqqqqqqqqqqqqqqqqqqqqqqqrrrrrrrrrrrrrrrrrrrrrsssssssssssssstttttttttttuuuuuuuuuuvvvvvvvvvwwwwwwwwwxxxxxxxxxyyyyyyyyzzzzzzzz+++..+
(PID.TID 0000.0001) //     29 +..+++zzzzzzzzzyyyyyyyyxxxxxxxxxwwwwwwwwwvvvvvvvvvvuuuuuuuuuutttttttttttttsssssssssssssssrrrrrrrrrrrrrrrrrrrrrrrrrrrrrrrqqqqqqqqqqqqrrrrrrrrrrrrrrrrrrrrrrrrrrrrrrrssssssssssssssstttttttttttttuuuuuuuuuuvvvvvvvvvvwwwwwwwwwxxxxxxxxxyyyyyyyyzzzzzzzzz+++..+
(PID.TID 0000.0001) //     28 +..+++zzzzzzzzzyyyyyyyyyxxxxxxxxxwwwwwwwwwvvvvvvvvvvvuuuuuuuuuuutttttttttttttssssssssssssssssssrrrrrrrrrrrrrrrrrrrrrrrrrrrrrrrrrrrrrrrrrrrrrrrrrrrrrrrrrrrrrrsssssssssssssssssstttttttttttttuuuuuuuuuuuvvvvvvvvvvvwwwwwwwwwxxxxxxxxxyyyyyyyyyzzzzzzzzz+++..+
(PID.TID 0000.0001) //     27 +..++++zzzzzzzzzyyyyyyyyyxxxxxxxxxwwwwwwwwwwvvvvvvvvvvvuuuuuuuuuuuuttttttttttttttssssssssssssssssssssssrrrrrrrrrrrrrrrrrrrrrrrrrrrrrrrrrrrrrrrrrrrrrrssssssssssssssssssssssttttttttttttttuuuuuuuuuuuuvvvvvvvvvvvwwwwwwwwwwxxxxxxxxxyyyyyyyyyzzzzzzzzz++++..+
(PID.TID 0000.0001) //     26 +..++++zzzzzzzzzyyyyyyyyyyxxxxxxxxxwwwwwwwwwwwvvvvvvvvvvvuuuuuuuuuuuuuttttttttttttttttsssssssssssssssssssssssssssssssrrrrrrrrrrrrrrrrrrsssssssssssssssssssssssssssssssttttttttttttttttuuuuuuuuuuuuuvvvvvvvvvvvwwwwwwwwwwwxxxxxxxxxyyyyyyyyyyzzzzzzzzz++++..+
(PID.TID 0000.0001) //     25 +..++++zzzzzzzzzzyyyyyyyyyxxxxxxxxxxxwwwwwwwwwwwvvvvvvvvvvvvuuuuuuuuuuuuuuttttttttttttttttttssssssssssssssssssssssssssssssssssssssssssssssssssssssssssssssssssssttttttttttttttttttuuuuuuuuuuuuuuvvvvvvvvvvvvwwwwwwwwwwwxxxxxxxxxxxyyyyyyyyyzzzzzzzzzz++++..+
(PID.TID 0000.0001) //     24 +..++++zzzzzzzzzzyyyyyyyyyyyxxxxxxxxxxwwwwwwwwwwwwvvvvvvvvvvvvvuuuuuuuuuuuuuuutttttttttttttttttttttttsssssssssssssssssssssssssssssssssssssssssssssssssstttttttttttttttttttttttuuuuuuuuuuuuuuuvvvvvvvvvvvvvwwwwwwwwwwwwxxxxxxxxxxyyyyyyyyyyyzzzzzzzzzz++++..+
(PID.TID 0000.0001) //     23 +..++++zzzzzzzzzzzyyyyyyyyyyyxxxxxxxxxxxwwwwwwwwwwwwvvvvvvvvvvvvvvuuuuuuuuuuuuuuuuutttttttttttttttttttttttttttttttsssssssssssssssssssssssstttttttttttttttttttttttttttttttuuuuuuuuuuuuuuuuuvvvvvvvvvvvvvvwwwwwwwwwwwwxxxxxxxxxxxyyyyyyyyyyyzzzzzzzzzzz++++..+
(PID.TID 0000.0001) //     22 +..+++++zzzzzzzzzzzyyyyyyyyyyyxxxxxxxxxxxxwwwwwwwwwwwwwvvvvvvvvvvvvvvvuuuuuuuuuuuuuuuuuuuuttttttttttttttttttttttttttttttttttttttttttttttttttttttttttttttttttttttttuuuuuuuuuuuuuuuuuuuuvvvvvvvvvvvvvvvwwwwwwwwwwwwwxxxxxxxxxxxxyyyyyyyyyyyzzzzzzzzzzz+++++..+
(PID.TID 0000.0001) //     21 +..+++++zzzzzzzzzzzyyyyyyyyyyyyxxxxxxxxxxxxxwwwwwwwwwwwwwwvvvvvvvvvvvvvvvvvuuuuuuuuuuuuuuuuuuuuuuuttttttttttttttttttttttttttttttttttttttttttttttttttttttttuuuuuuuuuuuuuuuuuuuuuuuvvvvvvvvvvvvvvvvvwwwwwwwwwwwwwwxxxxxxxxxxxxxyyyyyyyyyyyyzzzzzzzzzzz+++++..+
(PID.TID 0000.0001) //     20 +..+++++zzzzzzzzzzzzyyyyyyyyyyyyyxxxxxxxxxxxxxwwwwwwwwwwwwwwwvvvvvvvvvvvvvvvvvvvuuuuuuuuuuuuuuuuuuuuuuuuuuuuuuuuuttttttttttttttttttttttttttuuuuuuuuuuuuuuuuuuuuuuuuuuuuuuuuuvvvvvvvvvvvvvvvvvvvwwwwwwwwwwwwwwwxxxxxxxxxxxxxyyyyyyyyyyyyyzzzzzzzzzzzz+++++..+
(PID.TID 0000.0001) //     19 +..++++++zzzzzzzzzzzzyyyyyyyyyyyyyyxxxxxxxxxxxxxxwwwwwwwwwwwwwwwwvvvvvvvvvvvvvvvvvvvvvvuuuuuuuuuuuuuuuuuuuuuuuuuuuuuuuuuuuuuuuuuuuuuuuuuuuuuuuuuuuuuuuuuuuuuuuuuuuuuuvvvvvvvvvvvvvvvvvvvvvvwwwwwwwwwwwwwwwwxxxxxxxxxxxxxxyyyyyyyyyyyyyyzzzzzzzzzzzz++++++..+
(PID.TID 0000.0001) //     18 +..++++++zzzzzzzzzzzzzyyyyyyyyyyyyyyyxxxxxxxxxxxxxxxwwwwwwwwwwwwwwwwwwvvvvvvvvvvvvvvvvvvvvvvvvvvuuuuuuuuuuuuuuuuuuuuuuuuuuuuuuuuuuuuuuuuuuuuuuuuuuuuuuuuuuuuvvvvvvvvvvvvvvvvvvvvvvvvvvwwwwwwwwwwwwwwwwwwxxxxxxxxxxxxxxxyyyyyyyyyyyyyyyzzzzzzzzzzzzz++++++..+
(PID.TID 0000.0001) //     17 +..++++++zzzzzzzzzzzzzzzyyyyyyyyyyyyyyyxxxxxxxxxxxxxxxxxwwwwwwwwwwwwwwwwwwwwvvvvvvvvvvvvvvvvvvvvvvvvvvvvvvvvvvvvuuuuuuuuuuuuuuuuuuuuuuuuuuuuvvvvvvvvvvvvvvvvvvvvvvvvvvvvvvvvvvvvwwwwwwwwwwwwwwwwwwwwxxxxxxxxxxxxxxxxxyyyyyyyyyyyyyyyzzzzzzzzzzzzzzz++++++..+
(PID.TID 0000.0001) //     16 +..+++++++zzzzzzzzzzzzzzzyyyyyyyyyyyyyyyyxxxxxxxxxxxxxxxxxxxwwwwwwwwwwwwwwwwwwwwwwwvvvvvvvvvvvvvvvvvvvvvvvvvvvvvvvvvvvvvvvvvvvvvvvvvvvvvvvvvvvvvvvvvvvvvvvvvvvvvvvvvvvvvvwwwwwwwwwwwwwwwwwwwwwwwxxxxxxxxxxxxxxxxxxxyyyyyyyyyyyyyyyyzzzzzzzzzzzzzzz+++++++..+
(PID.TID 0000.0001) //     15 +..+++++++zzzzzzzzzzzzzzzzzyyyyyyyyyyyyyyyyyxxxxxxxxxxxxxxxxxxxxxwwwwwwwwwwwwwwwwwwwwwwwwwwwwvvvvvvvvvvvvvvvvvvvvvvvvvvvvvvvvvvvvvvvvvvvvvvvvvvvvvvvvvvvvvvvvvvwwwwwwwwwwwwwwwwwwwwwwwwwwwwxxxxxxxxxxxxxxxxxxxxxyyyyyyyyyyyyyyyyyzzzzzzzzzzzzzzzzz+++++++..+
(PID.TID 0000.0001) //     14 +..++++++++zzzzzzzzzzzzzzzzzzyyyyyyyyyyyyyyyyyyyxxxxxxxxxxxxxxxxxxxxxxxwwwwwwwwwwwwwwwwwwwwwwwwwwwwwwwwwwwwwwwwvvvvvvvvvvvvvvvvvvvvvvvvvvvvvvwwwwwwwwwwwwwwwwwwwwwwwwwwwwwwwwwwwwwwwwxxxxxxxxxxxxxxxxxxxxxxxyyyyyyyyyyyyyyyyyyyzzzzzzzzzzzzzzzzzz++++++++..+
(PID.TID 0000.0001) //     13 +..+++++++++zzzzzzzzzzzzzzzzzzzyyyyyyyyyyyyyyyyyyyyyxxxxxxxxxxxxxxxxxxxxxxxxxxxwwwwwwwwwwwwwwwwwwwwwwwwwwwwwwwwwwwwwwwwwwwwwwwwwwwwwwwwwwwwwwwwwwwwwwwwwwwwwwwwwwwwwwwwwwwwwwxxxxxxxxxxxxxxxxxxxxxxxxxxxyyyyyyyyyyyyyyyyyyyyyzzzzzzzzzzzzzzzzzzz+++++++++..+
(PID.TID 0000.0001) //     12 +..+++++++++zzzzzzzzzzzzzzzzzzzzzyyyyyyyyyyyyyyyyyyyyyyyyxxxxxxxxxxxxxxxxxxxxxxxxxxxxxxxxxwwwwwwwwwwwwwwwwwwwwwwwwwwwwwwwwwwwwwwwwwwwwwwwwwwwwwwwwwwwwwwwwwwwwwwwwxxxxxxxxxxxxxxxxxxxxxxxxxxxxxxxxxyyyyyyyyyyyyyyyyyyyyyyyyzzzzzzzzzzzzzzzzzzzzz+++++++++..+
(PID.TID 0000.0001) //     11 +..++++++++++zzzzzzzzzzzzzzzzzzzzzzzyyyyyyyyyyyyyyyyyyyyyyyyyyyxxxxxxxxxxxxxxxxxxxxxxxxxxxxxxxxxxxxxxxxxxxxxxxxwwwwwwwwwwwwwwwwwwwwwwwwwwwwwwxxxxxxxxxxxxxxxxxxxxxxxxxxxxxxxxxxxxxxxxxxxxxxxxyyyyyyyyyyyyyyyyyyyyyyyyyyyzzzzzzzzzzzzzzzzzzzzzzz++++++++++..+
(PID.TID 0000.0001) //     10 +..++++++++++++zzzzzzzzzzzzzzzzzzzzzzzzzyyyyyyyyyyyyyyyyyyyyyyyyyyyyyyyyxxxxxxxxxxxxxxxxxxxxxxxxxxxxxxxxxxxxxxxxxxxxxxxxxxxxxxxxxxxxxxxxxxxxxxxxxxxxxxxxxxxxxxxxxxxxxxxxxxxxxxxxxxxxyyyyyyyyyyyyyyyyyyyyyyyyyyyyyyyyzzzzzzzzzzzzzzzzzzzzzzzzz++++++++++++..+
(PID.TID 0000.0001) //      9 +..+++++++++++++zzzzzzzzzzzzzzzzzzzzzzzzzzzzzyyyyyyyyyyyyyyyyyyyyyyyyyyyyyyyyyyyyyyyyxxxxxxxxxxxxxxxxxxxxxxxxxxxxxxxxxxxxxxxxxxxxxxxxxxxxxxxxxxxxxxxxxxxxxxxxxxxxxxxxxxyyyyyyyyyyyyyyyyyyyyyyyyyyyyyyyyyyyyyyyyzzzzzzzzzzzzzzzzzzzzzzzzzzzzz+++++++++++++..+
(PID.TID 0000.0001) //      8 +..+++++++++++++++zzzzzzzzzzzzzzzzzzzzzzzzzzzzzzzzzzyyyyyyyyyyyyyyyyyyyyyyyyyyyyyyyyyyyyyyyyyyyyyyyyyyyyyyyyyyyxxxxxxxxxxxxxxxxxxxxxxxxxxxxxxyyyyyyyyyyyyyyyyyyyyyyyyyyyyyyyyyyyyyyyyyyyyyyyyyyyyyyyyyyyzzzzzzzzzzzzzzzzzzzzzzzzzzzzzzzzzz+++++++++++++++..+
(PID.TID 0000.0001) //      7 +..++++++++++++++++++zzzzzzzzzzzzzzzzzzzzzzzzzzzzzzzzzzzzzzzzyyyyyyyyyyyyyyyyyyyyyyyyyyyyyyyyyyyyyyyyyyyyyyyyyyyyyyyyyyyyyyyyyyyyyyyyyyyyyyyyyyyyyyyyyyyyyyyyyyyyyyyyyyyyyyyyyyyyyyyyyyyyyyyyyyzzzzzzzzzzzzzzzzzzzzzzzzzzzzzzzzzzzzzzzz++++++++++++++++++..+
(PID.TID 0000.0001) //      6 +..+++++++++++++++++++++zzzzzzzzzzzzzzzzzzzzzzzzzzzzzzzzzzzzzzzzzzzzzzzzzzzzyyyyyyyyyyyyyyyyyyyyyyyyyyyyyyyyyyyyyyyyyyyyyyyyyyyyyyyyyyyyyyyyyyyyyyyyyyyyyyyyyyyyyyyyyyyyyyyyyyyyzzzzzzzzzzzzzzzzzzzzzzzzzzzzzzzzzzzzzzzzzzzzzzzzzzzz+++++++++++++++++++++..+
(PID.TID 0000.0001) //      5 +..++++++++++++++++++++++++++zzzzzzzzzzzzzzzzzzzzzzzzzzzzzzzzzzzzzzzzzzzzzzzzzzzzzzzzzzzzzzzzzzzzzzzzzzzzzzzzzzzyyyyyyyyyyyyyyyyyyyyyyyyyyyyzzzzzzzzzzzzzzzzzzzzzzzzzzzzzzzzzzzzzzzzzzzzzzzzzzzzzzzzzzzzzzzzzzzzzzzzzzzzzzzzzzz++++++++++++++++++++++++++..+
(PID.TID 0000.0001) //      4 +..++++++++++++++++++++++++++++++++++zzzzzzzzzzzzzzzzzzzzzzzzzzzzzzzzzzzzzzzzzzzzzzzzzzzzzzzzzzzzzzzzzzzzzzzzzzzzzzzzzzzzzzzzzzzzzzzzzzzzzzzzzzzzzzzzzzzzzzzzzzzzzzzzzzzzzzzzzzzzzzzzzzzzzzzzzzzzzzzzzzzzzzzzzzzzzzzzzz++++++++++++++++++++++++++++++++++..+
(PID.TID 0000.0001) //      3 +..++++++++++++++++++++++++++++++++++++++++++++++++++zzzzzzzzzzzzzzzzzzzzzzzzzzzzzzzzzzzzzzzzzzzzzzzzzzzzzzzzzzzzzzzzzzzzzzzzzzzzzzzzzzzzzzzzzzzzzzzzzzzzzzzzzzzzzzzzzzzzzzzzzzzzzzzzzzzzzzzzzzzzzzzzzz++++++++++++++++++++++++++++++++++++++++++++++++++..+
(PID.TID 0000.0001) //      2 ............................................................................................................................................................................................................................................................
(PID.TID 0000.0001) //      1 ............................................................................................................................................................................................................................................................
(PID.TID 0000.0001) //      0 ............................................................................................................................................................................................................................................................
(PID.TID 0000.0001) //     -1 +..++++++++++++++++++++++++++++++++++++++++++++++++++zzzzzzzzzzzzzzzzzzzzzzzzzzzzzzzzzzzzzzzzzzzzzzzzzzzzzzzzzzzzzzzzzzzzzzzzzzzzzzzzzzzzzzzzzzzzzzzzzzzzzzzzzzzzzzzzzzzzzzzzzzzzzzzzzzzzzzzzzzzzzzzzzz++++++++++++++++++++++++++++++++++++++++++++++++++..+
(PID.TID 0000.0001) // =======================================================
(PID.TID 0000.0001) // END OF FIELD                                          =
(PID.TID 0000.0001) // =======================================================
(PID.TID 0000.0001) 
(PID.TID 0000.0001) GAD_INIT_FIXED: GAD_OlMinSize=  0  0  1
(PID.TID 0000.0001) 
(PID.TID 0000.0001) // ===================================
(PID.TID 0000.0001) // GAD parameters :
(PID.TID 0000.0001) // ===================================
(PID.TID 0000.0001) tempAdvScheme =   /* Temp. Horiz.Advection scheme selector */
(PID.TID 0000.0001)                       2
(PID.TID 0000.0001)     ;
(PID.TID 0000.0001) tempVertAdvScheme =   /* Temp. Vert. Advection scheme selector */
(PID.TID 0000.0001)                       2
(PID.TID 0000.0001)     ;
(PID.TID 0000.0001) tempMultiDimAdvec =   /* use Muti-Dim Advec method for Temp */
(PID.TID 0000.0001)                   F
(PID.TID 0000.0001)     ;
(PID.TID 0000.0001) tempSOM_Advection = /* use 2nd Order Moment Advection for Temp */
(PID.TID 0000.0001)                   F
(PID.TID 0000.0001)     ;
(PID.TID 0000.0001) AdamsBashforthGt = /* apply Adams-Bashforth extrapolation on Gt */
(PID.TID 0000.0001)                   F
(PID.TID 0000.0001)     ;
(PID.TID 0000.0001) AdamsBashforth_T = /* apply Adams-Bashforth extrapolation on Temp */
(PID.TID 0000.0001)                   F
(PID.TID 0000.0001)     ;
(PID.TID 0000.0001) saltAdvScheme =   /* Salt. Horiz.advection scheme selector */
(PID.TID 0000.0001)                       2
(PID.TID 0000.0001)     ;
(PID.TID 0000.0001) saltVertAdvScheme =   /* Salt. Vert. Advection scheme selector */
(PID.TID 0000.0001)                       2
(PID.TID 0000.0001)     ;
(PID.TID 0000.0001) saltMultiDimAdvec =   /* use Muti-Dim Advec method for Salt */
(PID.TID 0000.0001)                   F
(PID.TID 0000.0001)     ;
(PID.TID 0000.0001) saltSOM_Advection = /* use 2nd Order Moment Advection for Salt */
(PID.TID 0000.0001)                   F
(PID.TID 0000.0001)     ;
(PID.TID 0000.0001) AdamsBashforthGs = /* apply Adams-Bashforth extrapolation on Gs */
(PID.TID 0000.0001)                   F
(PID.TID 0000.0001)     ;
(PID.TID 0000.0001) AdamsBashforth_S = /* apply Adams-Bashforth extrapolation on Salt */
(PID.TID 0000.0001)                   F
(PID.TID 0000.0001)     ;
(PID.TID 0000.0001) // ===================================
(PID.TID 0000.0001) %MON fCori_max                    =   9.4650000000000E-05
(PID.TID 0000.0001) %MON fCori_min                    =   6.9950000000000E-05
(PID.TID 0000.0001) %MON fCori_mean                   =   8.2300000000003E-05
(PID.TID 0000.0001) %MON fCori_sd                     =   7.1590851370829E-06
(PID.TID 0000.0001) %MON fCoriG_max                   =   9.4600000000000E-05
(PID.TID 0000.0001) %MON fCoriG_min                   =   6.9900000000000E-05
(PID.TID 0000.0001) %MON fCoriG_mean                  =   8.2250000000006E-05
(PID.TID 0000.0001) %MON fCoriG_sd                    =   7.1590851370828E-06
(PID.TID 0000.0001) %MON fCoriCos_max                 =   0.0000000000000E+00
(PID.TID 0000.0001) %MON fCoriCos_min                 =   0.0000000000000E+00
(PID.TID 0000.0001) %MON fCoriCos_mean                =   0.0000000000000E+00
(PID.TID 0000.0001) %MON fCoriCos_sd                  =   0.0000000000000E+00
(PID.TID 0000.0001) INI_CG2D: CG2D normalisation factor =  2.0001203197379843E-04
(PID.TID 0000.0001) 
(PID.TID 0000.0001) // =======================================================
(PID.TID 0000.0001) // Model configuration
(PID.TID 0000.0001) // =======================================================
(PID.TID 0000.0001) //
(PID.TID 0000.0001) // "Physical" paramters ( PARM01 in namelist )
(PID.TID 0000.0001) //
(PID.TID 0000.0001) buoyancyRelation = /* Type of relation to get Buoyancy */
(PID.TID 0000.0001)               'OCEANIC'
(PID.TID 0000.0001)     ;
(PID.TID 0000.0001) fluidIsAir   =  /* fluid major constituent is Air */
(PID.TID 0000.0001)                   F
(PID.TID 0000.0001)     ;
(PID.TID 0000.0001) fluidIsWater =  /* fluid major constituent is Water */
(PID.TID 0000.0001)                   T
(PID.TID 0000.0001)     ;
(PID.TID 0000.0001) usingPCoords =  /* use p (or p*) vertical coordinate */
(PID.TID 0000.0001)                   F
(PID.TID 0000.0001)     ;
(PID.TID 0000.0001) usingZCoords =  /* use z (or z*) vertical coordinate */
(PID.TID 0000.0001)                   T
(PID.TID 0000.0001)     ;
(PID.TID 0000.0001) tRef =   /* Reference temperature profile ( oC or K ) */
(PID.TID 0000.0001)                 2.000000000000000E+01       /* K =  1 */
(PID.TID 0000.0001)     ;
(PID.TID 0000.0001) sRef =   /* Reference salinity profile ( psu ) */
(PID.TID 0000.0001)                 3.000000000000000E+01       /* K =  1 */
(PID.TID 0000.0001)     ;
(PID.TID 0000.0001) useStrainTensionVisc= /* Use StrainTension Form of Viscous Operator */
(PID.TID 0000.0001)                   F
(PID.TID 0000.0001)     ;
(PID.TID 0000.0001) useVariableVisc = /* Use variable horizontal viscosity */
(PID.TID 0000.0001)                   F
(PID.TID 0000.0001)     ;
(PID.TID 0000.0001) useHarmonicVisc = /* Use harmonic horizontal viscosity */
(PID.TID 0000.0001)                   T
(PID.TID 0000.0001)     ;
(PID.TID 0000.0001) useBiharmonicVisc= /* Use biharmonic horiz.  viscosity */
(PID.TID 0000.0001)                   F
(PID.TID 0000.0001)     ;
(PID.TID 0000.0001) useSmag3D = /* Use isotropic 3-D Smagorinsky viscosity */
(PID.TID 0000.0001)                   F
(PID.TID 0000.0001)     ;
(PID.TID 0000.0001) viscAh  =   /* Lateral harmonic viscosity ( m^2/s ) */
(PID.TID 0000.0001)                 4.000000000000000E+02
(PID.TID 0000.0001)     ;
(PID.TID 0000.0001) viscA4  =   /* Lateral biharmonic viscosity ( m^4/s ) */
(PID.TID 0000.0001)                 0.000000000000000E+00
(PID.TID 0000.0001)     ;
(PID.TID 0000.0001) no_slip_sides =  /* Viscous BCs: No-slip sides */
(PID.TID 0000.0001)                   T
(PID.TID 0000.0001)     ;
(PID.TID 0000.0001) sideDragFactor = /* side-drag scaling factor (non-dim) */
(PID.TID 0000.0001)                 2.000000000000000E+00
(PID.TID 0000.0001)     ;
(PID.TID 0000.0001) viscArNr = /* vertical profile of vertical viscosity ( m^2/s )*/
(PID.TID 0000.0001)                 0.000000000000000E+00       /* K =  1 */
(PID.TID 0000.0001)     ;
(PID.TID 0000.0001) no_slip_bottom =  /* Viscous BCs: No-slip bottom */
(PID.TID 0000.0001)                   T
(PID.TID 0000.0001)     ;
(PID.TID 0000.0001) bottomVisc_pCell = /* Partial-cell in bottom Visc. BC */
(PID.TID 0000.0001)                   F
(PID.TID 0000.0001)     ;
(PID.TID 0000.0001) bottomDragLinear = /* linear bottom-drag coefficient ( m/s ) */
(PID.TID 0000.0001)                 0.000000000000000E+00
(PID.TID 0000.0001)     ;
(PID.TID 0000.0001) bottomDragQuadratic = /* quadratic bottom-drag coefficient (-) */
(PID.TID 0000.0001)                 0.000000000000000E+00
(PID.TID 0000.0001)     ;
(PID.TID 0000.0001) selectBotDragQuadr = /* select quadratic bottom drag options */
(PID.TID 0000.0001)                      -1
(PID.TID 0000.0001)     ;
(PID.TID 0000.0001) diffKhT =   /* Laplacian diffusion of heat laterally ( m^2/s ) */
(PID.TID 0000.0001)                 0.000000000000000E+00
(PID.TID 0000.0001)     ;
(PID.TID 0000.0001) diffK4T =   /* Biharmonic diffusion of heat laterally ( m^4/s ) */
(PID.TID 0000.0001)                 0.000000000000000E+00
(PID.TID 0000.0001)     ;
(PID.TID 0000.0001) diffKhS =   /* Laplacian diffusion of salt laterally ( m^2/s ) */
(PID.TID 0000.0001)                 0.000000000000000E+00
(PID.TID 0000.0001)     ;
(PID.TID 0000.0001) diffK4S =   /* Biharmonic diffusion of salt laterally ( m^4/s ) */
(PID.TID 0000.0001)                 0.000000000000000E+00
(PID.TID 0000.0001)     ;
(PID.TID 0000.0001) diffKrNrT = /* vertical profile of vertical diffusion of Temp ( m^2/s )*/
(PID.TID 0000.0001)                 0.000000000000000E+00       /* K =  1 */
(PID.TID 0000.0001)     ;
(PID.TID 0000.0001) diffKrNrS = /* vertical profile of vertical diffusion of Salt ( m^2/s )*/
(PID.TID 0000.0001)                 0.000000000000000E+00       /* K =  1 */
(PID.TID 0000.0001)     ;
(PID.TID 0000.0001) diffKrBL79surf = /* Surface diffusion for Bryan and Lewis 79 ( m^2/s ) */
(PID.TID 0000.0001)                 0.000000000000000E+00
(PID.TID 0000.0001)     ;
(PID.TID 0000.0001) diffKrBL79deep = /* Deep diffusion for Bryan and Lewis 1979 ( m^2/s ) */
(PID.TID 0000.0001)                 0.000000000000000E+00
(PID.TID 0000.0001)     ;
(PID.TID 0000.0001) diffKrBL79scl = /* Depth scale for Bryan and Lewis 1979 ( m ) */
(PID.TID 0000.0001)                 2.000000000000000E+02
(PID.TID 0000.0001)     ;
(PID.TID 0000.0001) diffKrBL79Ho = /* Turning depth for Bryan and Lewis 1979 ( m ) */
(PID.TID 0000.0001)                -2.000000000000000E+03
(PID.TID 0000.0001)     ;
(PID.TID 0000.0001) ivdc_kappa = /* Implicit Vertical Diffusivity for Convection ( m^2/s) */
(PID.TID 0000.0001)                 0.000000000000000E+00
(PID.TID 0000.0001)     ;
(PID.TID 0000.0001) hMixCriteria=  /* Criteria for mixed-layer diagnostic */
(PID.TID 0000.0001)                -8.000000000000000E-01
(PID.TID 0000.0001)     ;
(PID.TID 0000.0001) dRhoSmall =  /* Parameter for mixed-layer diagnostic */
(PID.TID 0000.0001)                 1.000000000000000E-06
(PID.TID 0000.0001)     ;
(PID.TID 0000.0001) hMixSmooth=  /* Smoothing parameter for mixed-layer diagnostic */
(PID.TID 0000.0001)                 0.000000000000000E+00
(PID.TID 0000.0001)     ;
(PID.TID 0000.0001) eosType =  /* Type of Equation of State */
(PID.TID 0000.0001)               'LINEAR'
(PID.TID 0000.0001)     ;
(PID.TID 0000.0001) tAlpha = /* Linear EOS thermal expansion coefficient ( 1/oC ) */
(PID.TID 0000.0001)                 2.000000000000000E-04
(PID.TID 0000.0001)     ;
(PID.TID 0000.0001) sBeta  = /* Linear EOS haline contraction coefficient ( 1/psu ) */
(PID.TID 0000.0001)                 7.400000000000000E-04
(PID.TID 0000.0001)     ;
(PID.TID 0000.0001) rhoNil    = /* Reference density for Linear EOS ( kg/m^3 ) */
(PID.TID 0000.0001)                 9.998000000000000E+02
(PID.TID 0000.0001)     ;
(PID.TID 0000.0001) selectP_inEOS_Zc = /* select pressure to use in EOS (0,1,2,3) */
(PID.TID 0000.0001)                       0
(PID.TID 0000.0001)     0= -g*rhoConst*z ; 1= pRef (from tRef,sRef); 2= Hyd P ; 3= Hyd+NH P
(PID.TID 0000.0001)     ;
(PID.TID 0000.0001) surf_pRef = /* Surface reference pressure ( Pa ) */
(PID.TID 0000.0001)                 1.013250000000000E+05
(PID.TID 0000.0001)     ;
(PID.TID 0000.0001) HeatCapacity_Cp =  /* Specific heat capacity ( J/kg/K ) */
(PID.TID 0000.0001)                 3.994000000000000E+03
(PID.TID 0000.0001)     ;
(PID.TID 0000.0001) celsius2K = /* 0 degree Celsius converted to Kelvin ( K ) */
(PID.TID 0000.0001)                 2.731500000000000E+02
(PID.TID 0000.0001)     ;
(PID.TID 0000.0001) rhoConst  = /* Reference density (Boussinesq)  ( kg/m^3 ) */
(PID.TID 0000.0001)                 1.027000000000000E+03
(PID.TID 0000.0001)     ;
(PID.TID 0000.0001) rhoFacC = /* normalized Reference density @ cell-Center (-) */
(PID.TID 0000.0001)                 1.000000000000000E+00       /* K =  1 */
(PID.TID 0000.0001)     ;
(PID.TID 0000.0001) rhoFacF = /* normalized Reference density @ W-Interface (-) */
(PID.TID 0000.0001)     2 @  1.000000000000000E+00              /* K =  1:  2 */
(PID.TID 0000.0001)     ;
(PID.TID 0000.0001) rhoConstFresh = /* Fresh-water reference density ( kg/m^3 ) */
(PID.TID 0000.0001)                 1.027000000000000E+03
(PID.TID 0000.0001)     ;
(PID.TID 0000.0001) gravity =   /* Gravitational acceleration ( m/s^2 ) */
(PID.TID 0000.0001)                 9.810000000000000E+00
(PID.TID 0000.0001)     ;
(PID.TID 0000.0001) gBaro =   /* Barotropic gravity ( m/s^2 ) */
(PID.TID 0000.0001)                 9.810000000000000E+00
(PID.TID 0000.0001)     ;
(PID.TID 0000.0001) gravFacC = /* gravity factor (vs surf.) @ cell-Center (-) */
(PID.TID 0000.0001)                 1.000000000000000E+00       /* K =  1 */
(PID.TID 0000.0001)     ;
(PID.TID 0000.0001) gravFacF = /* gravity factor (vs surf.) @ W-Interface (-) */
(PID.TID 0000.0001)     2 @  1.000000000000000E+00              /* K =  1:  2 */
(PID.TID 0000.0001)     ;
(PID.TID 0000.0001) rotationPeriod =   /* Rotation Period ( s ) */
(PID.TID 0000.0001)                 8.616400000000000E+04
(PID.TID 0000.0001)     ;
(PID.TID 0000.0001) omega =   /* Angular velocity ( rad/s ) */
(PID.TID 0000.0001)                 7.292123516990375E-05
(PID.TID 0000.0001)     ;
(PID.TID 0000.0001) f0 =   /* Reference coriolis parameter ( 1/s ) */
(PID.TID 0000.0001)                 6.999999999999999E-05
(PID.TID 0000.0001)     ;
(PID.TID 0000.0001) beta =   /* Beta ( 1/(m.s) ) */
(PID.TID 0000.0001)                 2.000000000000000E-11
(PID.TID 0000.0001)     ;
(PID.TID 0000.0001) fPrime =   /* Second coriolis parameter ( 1/s ) */
(PID.TID 0000.0001)                 0.000000000000000E+00
(PID.TID 0000.0001)     ;
(PID.TID 0000.0001) rigidLid =   /* Rigid lid on/off flag */
(PID.TID 0000.0001)                   F
(PID.TID 0000.0001)     ;
(PID.TID 0000.0001) implicitFreeSurface =   /* Implicit free surface on/off flag */
(PID.TID 0000.0001)                   T
(PID.TID 0000.0001)     ;
(PID.TID 0000.0001) freeSurfFac =   /* Implicit free surface factor */
(PID.TID 0000.0001)                 1.000000000000000E+00
(PID.TID 0000.0001)     ;
(PID.TID 0000.0001) implicSurfPress =  /* Surface Pressure implicit factor (0-1)*/
(PID.TID 0000.0001)                 1.000000000000000E+00
(PID.TID 0000.0001)     ;
(PID.TID 0000.0001) implicDiv2DFlow =  /* Barot. Flow Div. implicit factor (0-1)*/
(PID.TID 0000.0001)                 1.000000000000000E+00
(PID.TID 0000.0001)     ;
(PID.TID 0000.0001) uniformLin_PhiSurf = /* use uniform Bo_surf on/off flag*/
(PID.TID 0000.0001)                   T
(PID.TID 0000.0001)     ;
(PID.TID 0000.0001) uniformFreeSurfLev = /* free-surface level-index is uniform */
(PID.TID 0000.0001)                   T
(PID.TID 0000.0001)     ;
(PID.TID 0000.0001) hFacMin =   /* minimum partial cell factor (hFac) */
(PID.TID 0000.0001)                 1.000000000000000E-01
(PID.TID 0000.0001)     ;
(PID.TID 0000.0001) hFacMinDr = /* minimum partial cell thickness ( m) */
(PID.TID 0000.0001)                 0.000000000000000E+00
(PID.TID 0000.0001)     ;
(PID.TID 0000.0001) exactConserv =  /* Exact Volume Conservation on/off flag*/
(PID.TID 0000.0001)                   F
(PID.TID 0000.0001)     ;
(PID.TID 0000.0001) linFSConserveTr = /* Tracer correction for Lin Free Surface on/off flag*/
(PID.TID 0000.0001)                   F
(PID.TID 0000.0001)     ;
(PID.TID 0000.0001) nonlinFreeSurf = /* Non-linear Free Surf. options (-1,0,1,2,3)*/
(PID.TID 0000.0001)                       0
(PID.TID 0000.0001)      -1,0= Off ; 1,2,3= On, 2=+rescale gU,gV, 3=+update cg2d solv.
(PID.TID 0000.0001)     ;
(PID.TID 0000.0001) hFacInf =   /* lower threshold for hFac (nonlinFreeSurf only)*/
(PID.TID 0000.0001)                 2.000000000000000E-01
(PID.TID 0000.0001)     ;
(PID.TID 0000.0001) hFacSup =   /* upper threshold for hFac (nonlinFreeSurf only)*/
(PID.TID 0000.0001)                 2.000000000000000E+00
(PID.TID 0000.0001)     ;
(PID.TID 0000.0001) select_rStar = /* r* Vertical coord. options (=0 r coord.; >0 uses r*)*/
(PID.TID 0000.0001)                       0
(PID.TID 0000.0001)     ;
(PID.TID 0000.0001) useRealFreshWaterFlux = /* Real Fresh Water Flux on/off flag*/
(PID.TID 0000.0001)                   F
(PID.TID 0000.0001)     ;
(PID.TID 0000.0001) temp_EvPrRn = /* Temp. of Evap/Prec/R (UNSET=use local T)(oC)*/
(PID.TID 0000.0001)                 1.234567000000000E+05
(PID.TID 0000.0001)     ;
(PID.TID 0000.0001) salt_EvPrRn = /* Salin. of Evap/Prec/R (UNSET=use local S)(psu)*/
(PID.TID 0000.0001)                 0.000000000000000E+00
(PID.TID 0000.0001)     ;
(PID.TID 0000.0001) selectAddFluid = /* option for mass source/sink of fluid (=0: off) */
(PID.TID 0000.0001)                       0
(PID.TID 0000.0001)     ;
(PID.TID 0000.0001) temp_addMass = /* Temp. of addMass array (UNSET=use local T)(oC)*/
(PID.TID 0000.0001)                 1.234567000000000E+05
(PID.TID 0000.0001)     ;
(PID.TID 0000.0001) salt_addMass = /* Salin. of addMass array (UNSET=use local S)(psu)*/
(PID.TID 0000.0001)                 0.000000000000000E+00
(PID.TID 0000.0001)     ;
(PID.TID 0000.0001) convertFW2Salt = /* convert F.W. Flux to Salt Flux (-1=use local S)(psu)*/
(PID.TID 0000.0001)                 3.500000000000000E+01
(PID.TID 0000.0001)     ;
(PID.TID 0000.0001) use3Dsolver = /* use 3-D pressure solver on/off flag */
(PID.TID 0000.0001)                   F
(PID.TID 0000.0001)     ;
(PID.TID 0000.0001) nonHydrostatic =  /* Non-Hydrostatic on/off flag */
(PID.TID 0000.0001)                   F
(PID.TID 0000.0001)     ;
(PID.TID 0000.0001) nh_Am2 = /* Non-Hydrostatic terms scaling factor */
(PID.TID 0000.0001)                 1.000000000000000E+00
(PID.TID 0000.0001)     ;
(PID.TID 0000.0001) implicitNHPress = /* Non-Hyd Pressure implicit factor (0-1)*/
(PID.TID 0000.0001)                 1.000000000000000E+00
(PID.TID 0000.0001)     ;
(PID.TID 0000.0001) selectNHfreeSurf = /* Non-Hyd (free-)Surface option */
(PID.TID 0000.0001)                       0
(PID.TID 0000.0001)     ;
(PID.TID 0000.0001) quasiHydrostatic = /* Quasi-Hydrostatic on/off flag */
(PID.TID 0000.0001)                   F
(PID.TID 0000.0001)     ;
(PID.TID 0000.0001) calc_wVelocity = /* vertical velocity calculation on/off flag */
(PID.TID 0000.0001)                   T
(PID.TID 0000.0001)     ;
(PID.TID 0000.0001) momStepping =  /* Momentum equation on/off flag */
(PID.TID 0000.0001)                   T
(PID.TID 0000.0001)     ;
(PID.TID 0000.0001) vectorInvariantMomentum= /* Vector-Invariant Momentum on/off */
(PID.TID 0000.0001)                   F
(PID.TID 0000.0001)     ;
(PID.TID 0000.0001) momAdvection =  /* Momentum advection on/off flag */
(PID.TID 0000.0001)                   T
(PID.TID 0000.0001)     ;
(PID.TID 0000.0001) momViscosity =  /* Momentum viscosity on/off flag */
(PID.TID 0000.0001)                   T
(PID.TID 0000.0001)     ;
(PID.TID 0000.0001) momImplVertAdv= /* Momentum implicit vert. advection on/off*/
(PID.TID 0000.0001)                   F
(PID.TID 0000.0001)     ;
(PID.TID 0000.0001) implicitViscosity = /* Implicit viscosity on/off flag */
(PID.TID 0000.0001)                   F
(PID.TID 0000.0001)     ;
(PID.TID 0000.0001) selectImplicitDrag= /* Implicit bot Drag options (0,1,2)*/
(PID.TID 0000.0001)                       0
(PID.TID 0000.0001)     0= Expl. ; 1= Impl. on provis. Vel ; 2= Fully Impl (with surf.P)
(PID.TID 0000.0001)     ;
(PID.TID 0000.0001) metricTerms =  /* metric-Terms on/off flag */
(PID.TID 0000.0001)                   F
(PID.TID 0000.0001)     ;
(PID.TID 0000.0001) useNHMTerms = /* Non-Hydrostatic Metric-Terms on/off */
(PID.TID 0000.0001)                   F
(PID.TID 0000.0001)     ;
(PID.TID 0000.0001) selectCoriMap = /* Coriolis Map options (0,1,2,3)*/
(PID.TID 0000.0001)                       1
(PID.TID 0000.0001)     0= f-Plane ; 1= Beta-Plane ; 2= Spherical ; 3= read from file
(PID.TID 0000.0001)     ;
(PID.TID 0000.0001) use3dCoriolis = /* 3-D Coriolis on/off flag */
(PID.TID 0000.0001)                   F
(PID.TID 0000.0001)     ;
(PID.TID 0000.0001) useCoriolis =  /* Coriolis on/off flag */
(PID.TID 0000.0001)                   T
(PID.TID 0000.0001)     ;
(PID.TID 0000.0001) useCDscheme =  /* CD scheme on/off flag */
(PID.TID 0000.0001)                   F
(PID.TID 0000.0001)     ;
(PID.TID 0000.0001) selectCoriScheme= /* Scheme selector for Coriolis-Term */
(PID.TID 0000.0001)                       0
(PID.TID 0000.0001)    = 0 : original discretization (simple averaging, no hFac)
(PID.TID 0000.0001)    = 1 : Wet-point averaging (Jamar & Ozer 1986)
(PID.TID 0000.0001)    = 2 : energy conserving scheme (no hFac weight)
(PID.TID 0000.0001)    = 3 : energy conserving scheme using Wet-point averaging
(PID.TID 0000.0001)     ;
(PID.TID 0000.0001) momForcing =  /* Momentum forcing on/off flag */
(PID.TID 0000.0001)                   T
(PID.TID 0000.0001)     ;
(PID.TID 0000.0001) momTidalForcing = /* Momentum Tidal forcing on/off flag */
(PID.TID 0000.0001)                   T
(PID.TID 0000.0001)     ;
(PID.TID 0000.0001) momPressureForcing =  /* Momentum pressure term on/off flag */
(PID.TID 0000.0001)                   T
(PID.TID 0000.0001)     ;
(PID.TID 0000.0001) implicitIntGravWave= /* Implicit Internal Gravity Wave flag */
(PID.TID 0000.0001)                   F
(PID.TID 0000.0001)     ;
(PID.TID 0000.0001) staggerTimeStep =    /* Stagger time stepping on/off flag */
(PID.TID 0000.0001)                   F
(PID.TID 0000.0001)     ;
(PID.TID 0000.0001) doResetHFactors = /* reset thickness factors @ each time-step */
(PID.TID 0000.0001)                   F
(PID.TID 0000.0001)     ;
(PID.TID 0000.0001) multiDimAdvection =  /* enable/disable Multi-Dim Advection */
(PID.TID 0000.0001)                   T
(PID.TID 0000.0001)     ;
(PID.TID 0000.0001) useMultiDimAdvec =   /* Multi-Dim Advection is/is-not used */
(PID.TID 0000.0001)                   F
(PID.TID 0000.0001)     ;
(PID.TID 0000.0001) implicitDiffusion = /* Implicit Diffusion on/off flag */
(PID.TID 0000.0001)                   F
(PID.TID 0000.0001)     ;
(PID.TID 0000.0001) tempStepping =  /* Temperature equation on/off flag */
(PID.TID 0000.0001)                   F
(PID.TID 0000.0001)     ;
(PID.TID 0000.0001) tempAdvection = /* Temperature advection on/off flag */
(PID.TID 0000.0001)                   F
(PID.TID 0000.0001)     ;
(PID.TID 0000.0001) tempImplVertAdv = /* Temp. implicit vert. advection on/off */
(PID.TID 0000.0001)                   F
(PID.TID 0000.0001)     ;
(PID.TID 0000.0001) tempForcing  =  /* Temperature forcing on/off flag */
(PID.TID 0000.0001)                   F
(PID.TID 0000.0001)     ;
(PID.TID 0000.0001) doThetaClimRelax = /* apply SST relaxation on/off flag */
(PID.TID 0000.0001)                   F
(PID.TID 0000.0001)     ;
(PID.TID 0000.0001) tempIsActiveTr = /* Temp. is a dynamically Active Tracer */
(PID.TID 0000.0001)                   F
(PID.TID 0000.0001)     ;
(PID.TID 0000.0001) saltStepping =  /* Salinity equation on/off flag */
(PID.TID 0000.0001)                   F
(PID.TID 0000.0001)     ;
(PID.TID 0000.0001) saltAdvection = /* Salinity advection on/off flag */
(PID.TID 0000.0001)                   F
(PID.TID 0000.0001)     ;
(PID.TID 0000.0001) saltImplVertAdv = /* Sali. implicit vert. advection on/off */
(PID.TID 0000.0001)                   F
(PID.TID 0000.0001)     ;
(PID.TID 0000.0001) saltForcing  =  /* Salinity forcing on/off flag */
(PID.TID 0000.0001)                   F
(PID.TID 0000.0001)     ;
(PID.TID 0000.0001) doSaltClimRelax = /* apply SSS relaxation on/off flag */
(PID.TID 0000.0001)                   F
(PID.TID 0000.0001)     ;
(PID.TID 0000.0001) saltIsActiveTr = /* Salt  is a dynamically Active Tracer */
(PID.TID 0000.0001)                   F
(PID.TID 0000.0001)     ;
(PID.TID 0000.0001)  readBinaryPrec = /* Precision used for reading binary files */
(PID.TID 0000.0001)                      32
(PID.TID 0000.0001)     ;
(PID.TID 0000.0001) writeBinaryPrec = /* Precision used for writing binary files */
(PID.TID 0000.0001)                      32
(PID.TID 0000.0001)     ;
(PID.TID 0000.0001)  rwSuffixType =   /* select format of mds file suffix */
(PID.TID 0000.0001)                       0
(PID.TID 0000.0001)    = 0 : myIter (I10.10) ;   = 1 : 100*myTime (100th sec) ;
(PID.TID 0000.0001)    = 2 : myTime (seconds);   = 3 : myTime/360 (10th of hr);
(PID.TID 0000.0001)    = 4 : myTime/3600 (hours)
(PID.TID 0000.0001)     ;
(PID.TID 0000.0001)  globalFiles = /* write "global" (=not per tile) files */
(PID.TID 0000.0001)                   F
(PID.TID 0000.0001)     ;
(PID.TID 0000.0001)  useSingleCpuIO = /* only master MPI process does I/O */
(PID.TID 0000.0001)                   T
(PID.TID 0000.0001)     ;
(PID.TID 0000.0001)  useSingleCpuInput = /* only master process reads input */
(PID.TID 0000.0001)                   T
(PID.TID 0000.0001)     ;
(PID.TID 0000.0001) /* debLev[*]  : level of debug & auxiliary message printing */
(PID.TID 0000.0001) debLevZero =  0 ; /* level of disabled aux. msg printing */
(PID.TID 0000.0001)    debLevA =  1 ; /* level of minimum  aux. msg printing */
(PID.TID 0000.0001)    debLevB =  2 ; /* level of low aux. print (report read-file opening)*/
(PID.TID 0000.0001)    debLevC =  3 ; /* level of moderate debug prt (most pkgs debug msg) */
(PID.TID 0000.0001)    debLevD =  4 ; /* level of enhanced debug prt (add DEBUG_STATS prt) */
(PID.TID 0000.0001)    debLevE =  5 ; /* level of extensive debug printing */
(PID.TID 0000.0001) debugLevel =  /* select debug printing level */
(PID.TID 0000.0001)                       2
(PID.TID 0000.0001)     ;
(PID.TID 0000.0001)  plotLevel =  /* select PLOT_FIELD printing level */
(PID.TID 0000.0001)                       2
(PID.TID 0000.0001)     ;
(PID.TID 0000.0001) //
(PID.TID 0000.0001) // Elliptic solver(s) paramters ( PARM02 in namelist )
(PID.TID 0000.0001) //
(PID.TID 0000.0001) cg2dMaxIters =   /* Upper limit on 2d con. grad iterations  */
(PID.TID 0000.0001)                    1000
(PID.TID 0000.0001)     ;
(PID.TID 0000.0001) cg2dChkResFreq =   /* 2d con. grad convergence test frequency */
(PID.TID 0000.0001)                       1
(PID.TID 0000.0001)     ;
(PID.TID 0000.0001) cg2dUseMinResSol= /* use cg2d last-iter(=0) / min-resid.(=1) solution */
(PID.TID 0000.0001)                       0
(PID.TID 0000.0001)     ;
(PID.TID 0000.0001) cg2dTargetResidual =   /* 2d con. grad target residual  */
(PID.TID 0000.0001)                 1.000000000000000E-07
(PID.TID 0000.0001)     ;
(PID.TID 0000.0001) cg2dTargetResWunit =   /* CG2d target residual [W units] */
(PID.TID 0000.0001)                -1.000000000000000E+00
(PID.TID 0000.0001)     ;
(PID.TID 0000.0001) cg2dPreCondFreq =   /* Freq. for updating cg2d preconditioner */
(PID.TID 0000.0001)                       1
(PID.TID 0000.0001)     ;
(PID.TID 0000.0001) useSRCGSolver =  /* use single reduction CG solver(s) */
(PID.TID 0000.0001)                   F
(PID.TID 0000.0001)     ;
(PID.TID 0000.0001) printResidualFreq = /* Freq. for printing CG residual */
(PID.TID 0000.0001)                       0
(PID.TID 0000.0001)     ;
(PID.TID 0000.0001) //
(PID.TID 0000.0001) // Time stepping paramters ( PARM03 in namelist )
(PID.TID 0000.0001) //
(PID.TID 0000.0001) deltaTMom =   /* Momentum equation timestep ( s ) */
(PID.TID 0000.0001)                 5.400000000000000E+03
(PID.TID 0000.0001)     ;
(PID.TID 0000.0001) deltaTFreeSurf = /* FreeSurface equation timestep ( s ) */
(PID.TID 0000.0001)                 5.400000000000000E+03
(PID.TID 0000.0001)     ;
(PID.TID 0000.0001) dTtracerLev =  /* Tracer equation timestep ( s ) */
(PID.TID 0000.0001)                 5.400000000000000E+03       /* K =  1 */
(PID.TID 0000.0001)     ;
(PID.TID 0000.0001) deltaTClock  =   /* Model clock timestep ( s ) */
(PID.TID 0000.0001)                 5.400000000000000E+03
(PID.TID 0000.0001)     ;
(PID.TID 0000.0001) cAdjFreq =   /* Convective adjustment interval ( s ) */
(PID.TID 0000.0001)                 0.000000000000000E+00
(PID.TID 0000.0001)     ;
(PID.TID 0000.0001) momForcingOutAB = /* =1: take Momentum Forcing out of Adams-Bash. stepping */
(PID.TID 0000.0001)                       0
(PID.TID 0000.0001)     ;
(PID.TID 0000.0001) tracForcingOutAB = /* =1: take T,S,pTr Forcing out of Adams-Bash. stepping */
(PID.TID 0000.0001)                       0
(PID.TID 0000.0001)     ;
(PID.TID 0000.0001) momDissip_In_AB = /* put Dissipation Tendency in Adams-Bash. stepping */
(PID.TID 0000.0001)                   T
(PID.TID 0000.0001)     ;
(PID.TID 0000.0001) doAB_onGtGs = /* apply AB on Tendencies (rather than on T,S)*/
(PID.TID 0000.0001)                   T
(PID.TID 0000.0001)     ;
(PID.TID 0000.0001) abEps =   /* Adams-Bashforth-2 stabilizing weight */
(PID.TID 0000.0001)                 1.000000000000000E-02
(PID.TID 0000.0001)     ;
(PID.TID 0000.0001) applyExchUV_early = /* Apply EXCH to U,V earlier in time-step */
(PID.TID 0000.0001)                   F
(PID.TID 0000.0001)     ;
(PID.TID 0000.0001) pickupStrictlyMatch= /* stop if pickup do not strictly match */
(PID.TID 0000.0001)                   T
(PID.TID 0000.0001)     ;
(PID.TID 0000.0001) nIter0   =   /* Run starting timestep number */
(PID.TID 0000.0001)                       0
(PID.TID 0000.0001)     ;
(PID.TID 0000.0001) nTimeSteps = /* Number of timesteps */
(PID.TID 0000.0001)                     480
(PID.TID 0000.0001)     ;
(PID.TID 0000.0001) nEndIter =   /* Run ending timestep number */
(PID.TID 0000.0001)                     480
(PID.TID 0000.0001)     ;
(PID.TID 0000.0001) baseTime =   /* Model base time ( s ) */
(PID.TID 0000.0001)                 0.000000000000000E+00
(PID.TID 0000.0001)     ;
(PID.TID 0000.0001) startTime =  /* Run start time ( s ) */
(PID.TID 0000.0001)                 0.000000000000000E+00
(PID.TID 0000.0001)     ;
(PID.TID 0000.0001) endTime  =   /* Integration ending time ( s ) */
(PID.TID 0000.0001)                 2.592000000000000E+06
(PID.TID 0000.0001)     ;
(PID.TID 0000.0001) pChkPtFreq = /* Permanent restart/pickup file interval ( s ) */
(PID.TID 0000.0001)                 3.110400000000000E+07
(PID.TID 0000.0001)     ;
(PID.TID 0000.0001) chkPtFreq  = /* Rolling restart/pickup file interval ( s ) */
(PID.TID 0000.0001)                 2.592000000000000E+07
(PID.TID 0000.0001)     ;
(PID.TID 0000.0001) pickup_write_mdsio =   /* Model IO flag. */
(PID.TID 0000.0001)                   T
(PID.TID 0000.0001)     ;
(PID.TID 0000.0001) pickup_read_mdsio =   /* Model IO flag. */
(PID.TID 0000.0001)                   T
(PID.TID 0000.0001)     ;
(PID.TID 0000.0001) writePickupAtEnd =   /* Model IO flag. */
(PID.TID 0000.0001)                   T
(PID.TID 0000.0001)     ;
(PID.TID 0000.0001) dumpFreq =   /* Model state write out interval ( s ). */
(PID.TID 0000.0001)                 8.640000000000000E+04
(PID.TID 0000.0001)     ;
(PID.TID 0000.0001) dumpInitAndLast= /* write out Initial & Last iter. model state */
(PID.TID 0000.0001)                   T
(PID.TID 0000.0001)     ;
(PID.TID 0000.0001) snapshot_mdsio =   /* Model IO flag. */
(PID.TID 0000.0001)                   T
(PID.TID 0000.0001)     ;
(PID.TID 0000.0001) monitorFreq =   /* Monitor output interval ( s ). */
(PID.TID 0000.0001)                 8.640000000000000E+04
(PID.TID 0000.0001)     ;
(PID.TID 0000.0001) monitorSelect = /* select group of variables to monitor */
(PID.TID 0000.0001)                       2
(PID.TID 0000.0001)     ;
(PID.TID 0000.0001) monitor_stdio =   /* Model IO flag. */
(PID.TID 0000.0001)                   T
(PID.TID 0000.0001)     ;
(PID.TID 0000.0001) externForcingPeriod =   /* forcing period (s) */
(PID.TID 0000.0001)                 0.000000000000000E+00
(PID.TID 0000.0001)     ;
(PID.TID 0000.0001) externForcingCycle =   /* period of the cyle (s). */
(PID.TID 0000.0001)                 0.000000000000000E+00
(PID.TID 0000.0001)     ;
(PID.TID 0000.0001) tauThetaClimRelax =   /* relaxation time scale (s) */
(PID.TID 0000.0001)                 0.000000000000000E+00
(PID.TID 0000.0001)     ;
(PID.TID 0000.0001) tauSaltClimRelax =   /* relaxation time scale (s) */
(PID.TID 0000.0001)                 0.000000000000000E+00
(PID.TID 0000.0001)     ;
(PID.TID 0000.0001) latBandClimRelax =   /* max. Lat. where relaxation */
(PID.TID 0000.0001)                 3.720000000000000E+06
(PID.TID 0000.0001)     ;
(PID.TID 0000.0001) //
(PID.TID 0000.0001) // Gridding paramters ( PARM04 in namelist )
(PID.TID 0000.0001) //
(PID.TID 0000.0001) usingCartesianGrid = /* Cartesian coordinates flag ( True/False ) */
(PID.TID 0000.0001)                   T
(PID.TID 0000.0001)     ;
(PID.TID 0000.0001) usingCylindricalGrid = /* Cylindrical coordinates flag ( True/False ) */
(PID.TID 0000.0001)                   F
(PID.TID 0000.0001)     ;
(PID.TID 0000.0001) usingSphericalPolarGrid = /* Spherical coordinates flag ( True/False ) */
(PID.TID 0000.0001)                   F
(PID.TID 0000.0001)     ;
(PID.TID 0000.0001) usingCurvilinearGrid = /* Curvilinear coordinates flag ( True/False ) */
(PID.TID 0000.0001)                   F
(PID.TID 0000.0001)     ;
(PID.TID 0000.0001) useMin4hFacEdges = /* set hFacW,S as minimum of adjacent hFacC factor */
(PID.TID 0000.0001)                   F
(PID.TID 0000.0001)     ;
(PID.TID 0000.0001) interViscAr_pCell = /* account for partial-cell in interior vert. viscosity */
(PID.TID 0000.0001)                   F
(PID.TID 0000.0001)     ;
(PID.TID 0000.0001) interDiffKr_pCell = /* account for partial-cell in interior vert. diffusion */
(PID.TID 0000.0001)                   F
(PID.TID 0000.0001)     ;
(PID.TID 0000.0001) pCellMix_select = /* option to enhance mixing near surface & bottom */
(PID.TID 0000.0001)                       0
(PID.TID 0000.0001)     ;
(PID.TID 0000.0001) selectSigmaCoord = /* Hybrid-Sigma Vert. Coordinate option */
(PID.TID 0000.0001)                       0
(PID.TID 0000.0001)     ;
(PID.TID 0000.0001) rSigmaBnd = /* r/sigma transition ( units of r ==  m ) */
(PID.TID 0000.0001)                 1.234567000000000E+05
(PID.TID 0000.0001)     ;
(PID.TID 0000.0001) rkSign =   /* index orientation relative to vertical coordinate */
(PID.TID 0000.0001)                -1.000000000000000E+00
(PID.TID 0000.0001)     ;
(PID.TID 0000.0001) gravitySign = /* gravity orientation relative to vertical coordinate */
(PID.TID 0000.0001)                -1.000000000000000E+00
(PID.TID 0000.0001)     ;
(PID.TID 0000.0001) seaLev_Z =  /* reference height of sea-level [m] */
(PID.TID 0000.0001)                 0.000000000000000E+00
(PID.TID 0000.0001)     ;
(PID.TID 0000.0001) top_Pres =  /* reference pressure at the top [Pa] */
(PID.TID 0000.0001)                 0.000000000000000E+00
(PID.TID 0000.0001)     ;
(PID.TID 0000.0001) mass2rUnit = /* convert mass per unit area [kg/m2] to r-units [m] */
(PID.TID 0000.0001)                 9.737098344693282E-04
(PID.TID 0000.0001)     ;
(PID.TID 0000.0001) rUnit2mass = /* convert r-units [m] to mass per unit area [kg/m2] */
(PID.TID 0000.0001)                 1.027000000000000E+03
(PID.TID 0000.0001)     ;
(PID.TID 0000.0001) drC =   /* C spacing ( units of r ) */
(PID.TID 0000.0001)     2 @  2.500000000000000E+03              /* K =  1:  2 */
(PID.TID 0000.0001)     ;
(PID.TID 0000.0001) drF =   /* W spacing ( units of r ) */
(PID.TID 0000.0001)                 5.000000000000000E+03       /* K =  1 */
(PID.TID 0000.0001)     ;
(PID.TID 0000.0001) delX = /* U spacing ( m - cartesian, degrees - spherical ) */
(PID.TID 0000.0001)   248 @  5.000000000000000E+03              /* I =  1:248 */
(PID.TID 0000.0001)     ;
(PID.TID 0000.0001) delY = /* V spacing ( m - cartesian, degrees - spherical ) */
(PID.TID 0000.0001)   248 @  5.000000000000000E+03              /* J =  1:248 */
(PID.TID 0000.0001)     ;
(PID.TID 0000.0001) xgOrigin = /* X-axis origin of West  edge (cartesian: m, lat-lon: deg) */
(PID.TID 0000.0001)                -5.000000000000000E+03
(PID.TID 0000.0001)     ;
(PID.TID 0000.0001) ygOrigin = /* Y-axis origin of South edge (cartesian: m, lat-lon: deg) */
(PID.TID 0000.0001)                -5.000000000000000E+03
(PID.TID 0000.0001)     ;
(PID.TID 0000.0001) rSphere =  /* Radius ( ignored - cartesian, m - spherical ) */
(PID.TID 0000.0001)                 6.370000000000000E+06
(PID.TID 0000.0001)     ;
(PID.TID 0000.0001) deepAtmosphere = /* Deep/Shallow Atmosphere flag (True/False) */
(PID.TID 0000.0001)                   F
(PID.TID 0000.0001)     ;
(PID.TID 0000.0001) xC =  /* xC(:,1,:,1) : P-point X coord ( deg. or m if cartesian) */
(PID.TID 0000.0001)                -2.500000000000000E+03,      /* I =  1 */
(PID.TID 0000.0001)                 2.500000000000000E+03,      /* I =  2 */
(PID.TID 0000.0001)                 7.500000000000000E+03,      /* I =  3 */
(PID.TID 0000.0001)      . . .
(PID.TID 0000.0001)                 2.925000000000000E+05,      /* I = 60 */
(PID.TID 0000.0001)                 2.975000000000000E+05,      /* I = 61 */
(PID.TID 0000.0001)                 3.025000000000000E+05,      /* I = 62 */
(PID.TID 0000.0001)                 3.075000000000000E+05,      /* I = 63 */
(PID.TID 0000.0001)                 3.125000000000000E+05,      /* I = 64 */
(PID.TID 0000.0001)                 3.175000000000000E+05,      /* I = 65 */
(PID.TID 0000.0001)      . . .
(PID.TID 0000.0001)                 6.025000000000000E+05,      /* I =122 */
(PID.TID 0000.0001)                 6.075000000000000E+05,      /* I =123 */
(PID.TID 0000.0001)                 6.125000000000000E+05,      /* I =124 */
(PID.TID 0000.0001)                 6.175000000000000E+05,      /* I =125 */
(PID.TID 0000.0001)                 6.225000000000000E+05,      /* I =126 */
(PID.TID 0000.0001)                 6.275000000000000E+05,      /* I =127 */
(PID.TID 0000.0001)      . . .
(PID.TID 0000.0001)                 9.125000000000000E+05,      /* I =184 */
(PID.TID 0000.0001)                 9.175000000000000E+05,      /* I =185 */
(PID.TID 0000.0001)                 9.225000000000000E+05,      /* I =186 */
(PID.TID 0000.0001)                 9.275000000000000E+05,      /* I =187 */
(PID.TID 0000.0001)                 9.325000000000000E+05,      /* I =188 */
(PID.TID 0000.0001)                 9.375000000000000E+05,      /* I =189 */
(PID.TID 0000.0001)      . . .
(PID.TID 0000.0001)                 1.222500000000000E+06,      /* I =246 */
(PID.TID 0000.0001)                 1.227500000000000E+06,      /* I =247 */
(PID.TID 0000.0001)                 1.232500000000000E+06       /* I =248 */
(PID.TID 0000.0001)     ;
(PID.TID 0000.0001) yC =  /* yC(1,:,1,:) : P-point Y coord ( deg. or m if cartesian) */
(PID.TID 0000.0001)                -2.500000000000000E+03,      /* J =  1 */
(PID.TID 0000.0001)                 2.500000000000000E+03,      /* J =  2 */
(PID.TID 0000.0001)                 7.500000000000000E+03,      /* J =  3 */
(PID.TID 0000.0001)      . . .
(PID.TID 0000.0001)                 2.925000000000000E+05,      /* J = 60 */
(PID.TID 0000.0001)                 2.975000000000000E+05,      /* J = 61 */
(PID.TID 0000.0001)                 3.025000000000000E+05,      /* J = 62 */
(PID.TID 0000.0001)                 3.075000000000000E+05,      /* J = 63 */
(PID.TID 0000.0001)                 3.125000000000000E+05,      /* J = 64 */
(PID.TID 0000.0001)                 3.175000000000000E+05,      /* J = 65 */
(PID.TID 0000.0001)      . . .
(PID.TID 0000.0001)                 6.025000000000000E+05,      /* J =122 */
(PID.TID 0000.0001)                 6.075000000000000E+05,      /* J =123 */
(PID.TID 0000.0001)                 6.125000000000000E+05,      /* J =124 */
(PID.TID 0000.0001)                 6.175000000000000E+05,      /* J =125 */
(PID.TID 0000.0001)                 6.225000000000000E+05,      /* J =126 */
(PID.TID 0000.0001)                 6.275000000000000E+05,      /* J =127 */
(PID.TID 0000.0001)      . . .
(PID.TID 0000.0001)                 9.125000000000000E+05,      /* J =184 */
(PID.TID 0000.0001)                 9.175000000000000E+05,      /* J =185 */
(PID.TID 0000.0001)                 9.225000000000000E+05,      /* J =186 */
(PID.TID 0000.0001)                 9.275000000000000E+05,      /* J =187 */
(PID.TID 0000.0001)                 9.325000000000000E+05,      /* J =188 */
(PID.TID 0000.0001)                 9.375000000000000E+05,      /* J =189 */
(PID.TID 0000.0001)      . . .
(PID.TID 0000.0001)                 1.222500000000000E+06,      /* J =246 */
(PID.TID 0000.0001)                 1.227500000000000E+06,      /* J =247 */
(PID.TID 0000.0001)                 1.232500000000000E+06       /* J =248 */
(PID.TID 0000.0001)     ;
(PID.TID 0000.0001) rcoord = /* P-point R coordinate (  units of r ) */
(PID.TID 0000.0001)                -2.500000000000000E+03       /* K =  1 */
(PID.TID 0000.0001)     ;
(PID.TID 0000.0001) rF =   /* W-Interf. R coordinate (  units of r ) */
(PID.TID 0000.0001)                 0.000000000000000E+00,      /* K =  1 */
(PID.TID 0000.0001)                -5.000000000000000E+03       /* K =  2 */
(PID.TID 0000.0001)     ;
(PID.TID 0000.0001) deepFacC = /* deep-model grid factor @ cell-Center (-) */
(PID.TID 0000.0001)                 1.000000000000000E+00       /* K =  1 */
(PID.TID 0000.0001)     ;
(PID.TID 0000.0001) deepFacF = /* deep-model grid factor @ W-Interface (-) */
(PID.TID 0000.0001)     2 @  1.000000000000000E+00              /* K =  1:  2 */
(PID.TID 0000.0001)     ;
(PID.TID 0000.0001) rVel2wUnit = /* convert units: rVel -> wSpeed (=1 if z-coord)*/
(PID.TID 0000.0001)     2 @  1.000000000000000E+00              /* K =  1:  2 */
(PID.TID 0000.0001)     ;
(PID.TID 0000.0001) wUnit2rVel = /* convert units: wSpeed -> rVel (=1 if z-coord)*/
(PID.TID 0000.0001)     2 @  1.000000000000000E+00              /* K =  1:  2 */
(PID.TID 0000.0001)     ;
(PID.TID 0000.0001) dBdrRef = /* Vertical grad. of reference buoyancy [(m/s/r)^2] */
(PID.TID 0000.0001)                 0.000000000000000E+00       /* K =  1 */
(PID.TID 0000.0001)     ;
(PID.TID 0000.0001) rotateGrid = /* use rotated grid ( True/False ) */
(PID.TID 0000.0001)                   F
(PID.TID 0000.0001)     ;
(PID.TID 0000.0001) phiEuler = /* Euler angle, rotation about original z-coordinate [rad] */
(PID.TID 0000.0001)                 0.000000000000000E+00
(PID.TID 0000.0001)     ;
(PID.TID 0000.0001) thetaEuler = /* Euler angle, rotation about new x-coordinate [rad] */
(PID.TID 0000.0001)                 0.000000000000000E+00
(PID.TID 0000.0001)     ;
(PID.TID 0000.0001) psiEuler = /* Euler angle, rotation about new z-coordinate [rad] */
(PID.TID 0000.0001)                 0.000000000000000E+00
(PID.TID 0000.0001)     ;
(PID.TID 0000.0001) dxF =  /* dxF(:,1,:,1) ( units: m ) */
(PID.TID 0000.0001)   248 @  5.000000000000000E+03              /* I =  1:248 */
(PID.TID 0000.0001)     ;
(PID.TID 0000.0001) dxF =  /* dxF(1,:,1,:) ( units: m ) */
(PID.TID 0000.0001)   248 @  5.000000000000000E+03              /* J =  1:248 */
(PID.TID 0000.0001)     ;
(PID.TID 0000.0001) dyF =  /* dyF(:,1,:,1) ( units: m ) */
(PID.TID 0000.0001)   248 @  5.000000000000000E+03              /* I =  1:248 */
(PID.TID 0000.0001)     ;
(PID.TID 0000.0001) dyF =  /* dyF(1,:,1,:) ( units: m ) */
(PID.TID 0000.0001)   248 @  5.000000000000000E+03              /* J =  1:248 */
(PID.TID 0000.0001)     ;
(PID.TID 0000.0001) dxG =  /* dxG(:,1,:,1) ( units: m ) */
(PID.TID 0000.0001)   248 @  5.000000000000000E+03              /* I =  1:248 */
(PID.TID 0000.0001)     ;
(PID.TID 0000.0001) dxG =  /* dxG(1,:,1,:) ( units: m ) */
(PID.TID 0000.0001)   248 @  5.000000000000000E+03              /* J =  1:248 */
(PID.TID 0000.0001)     ;
(PID.TID 0000.0001) dyG =  /* dyG(:,1,:,1) ( units: m ) */
(PID.TID 0000.0001)   248 @  5.000000000000000E+03              /* I =  1:248 */
(PID.TID 0000.0001)     ;
(PID.TID 0000.0001) dyG =  /* dyG(1,:,1,:) ( units: m ) */
(PID.TID 0000.0001)   248 @  5.000000000000000E+03              /* J =  1:248 */
(PID.TID 0000.0001)     ;
(PID.TID 0000.0001) dxC =  /* dxC(:,1,:,1) ( units: m ) */
(PID.TID 0000.0001)   248 @  5.000000000000000E+03              /* I =  1:248 */
(PID.TID 0000.0001)     ;
(PID.TID 0000.0001) dxC =  /* dxC(1,:,1,:) ( units: m ) */
(PID.TID 0000.0001)   248 @  5.000000000000000E+03              /* J =  1:248 */
(PID.TID 0000.0001)     ;
(PID.TID 0000.0001) dyC =  /* dyC(:,1,:,1) ( units: m ) */
(PID.TID 0000.0001)   248 @  5.000000000000000E+03              /* I =  1:248 */
(PID.TID 0000.0001)     ;
(PID.TID 0000.0001) dyC =  /* dyC(1,:,1,:) ( units: m ) */
(PID.TID 0000.0001)   248 @  5.000000000000000E+03              /* J =  1:248 */
(PID.TID 0000.0001)     ;
(PID.TID 0000.0001) dxV =  /* dxV(:,1,:,1) ( units: m ) */
(PID.TID 0000.0001)   248 @  5.000000000000000E+03              /* I =  1:248 */
(PID.TID 0000.0001)     ;
(PID.TID 0000.0001) dxV =  /* dxV(1,:,1,:) ( units: m ) */
(PID.TID 0000.0001)   248 @  5.000000000000000E+03              /* J =  1:248 */
(PID.TID 0000.0001)     ;
(PID.TID 0000.0001) dyU =  /* dyU(:,1,:,1) ( units: m ) */
(PID.TID 0000.0001)   248 @  5.000000000000000E+03              /* I =  1:248 */
(PID.TID 0000.0001)     ;
(PID.TID 0000.0001) dyU =  /* dyU(1,:,1,:) ( units: m ) */
(PID.TID 0000.0001)   248 @  5.000000000000000E+03              /* J =  1:248 */
(PID.TID 0000.0001)     ;
(PID.TID 0000.0001) rA  =  /* rA (:,1,:,1) ( units: m^2 ) */
(PID.TID 0000.0001)   248 @  2.500000000000000E+07              /* I =  1:248 */
(PID.TID 0000.0001)     ;
(PID.TID 0000.0001) rA  =  /* rA (1,:,1,:) ( units: m^2 ) */
(PID.TID 0000.0001)   248 @  2.500000000000000E+07              /* J =  1:248 */
(PID.TID 0000.0001)     ;
(PID.TID 0000.0001) rAw =  /* rAw(:,1,:,1) ( units: m^2 ) */
(PID.TID 0000.0001)   248 @  2.500000000000000E+07              /* I =  1:248 */
(PID.TID 0000.0001)     ;
(PID.TID 0000.0001) rAw =  /* rAw(1,:,1,:) ( units: m^2 ) */
(PID.TID 0000.0001)   248 @  2.500000000000000E+07              /* J =  1:248 */
(PID.TID 0000.0001)     ;
(PID.TID 0000.0001) rAs =  /* rAs(:,1,:,1) ( units: m^2 ) */
(PID.TID 0000.0001)   248 @  2.500000000000000E+07              /* I =  1:248 */
(PID.TID 0000.0001)     ;
(PID.TID 0000.0001) rAs =  /* rAs(1,:,1,:) ( units: m^2 ) */
(PID.TID 0000.0001)   248 @  2.500000000000000E+07              /* J =  1:248 */
(PID.TID 0000.0001)     ;
(PID.TID 0000.0001) globalArea = /* Integrated horizontal Area (m^2) */
(PID.TID 0000.0001)                 1.512900000000000E+12
(PID.TID 0000.0001)     ;
(PID.TID 0000.0001) // =======================================================
(PID.TID 0000.0001) // End of Model config. summary
(PID.TID 0000.0001) // =======================================================
(PID.TID 0000.0001) 
(PID.TID 0000.0001) == Packages configuration : Check & print summary ==
(PID.TID 0000.0001) 
(PID.TID 0000.0001) // =======================================================
(PID.TID 0000.0001) // Check Model config. (CONFIG_CHECK):
(PID.TID 0000.0001) // CONFIG_CHECK : Normal End
(PID.TID 0000.0001) // =======================================================
(PID.TID 0000.0001) 
(PID.TID 0000.0001) Start initial hydrostatic pressure computation
(PID.TID 0000.0001) Pressure is predetermined for buoyancyRelation OCEANIC
(PID.TID 0000.0001) 
(PID.TID 0000.0001)  MDS_READ_FIELD: opening global file: wind.bin
(PID.TID 0000.0001) // =======================================================
(PID.TID 0000.0001) // Model current state
(PID.TID 0000.0001) // =======================================================
(PID.TID 0000.0001) 
(PID.TID 0000.0001) // =======================================================
(PID.TID 0000.0001) // Begin MONITOR dynamic field statistics
(PID.TID 0000.0001) // =======================================================
(PID.TID 0000.0001) %MON time_tsnumber                =                     0
(PID.TID 0000.0001) %MON time_secondsf                =   0.0000000000000E+00
(PID.TID 0000.0001) %MON dynstat_eta_max              =   0.0000000000000E+00
(PID.TID 0000.0001) %MON dynstat_eta_min              =   0.0000000000000E+00
(PID.TID 0000.0001) %MON dynstat_eta_mean             =   0.0000000000000E+00
(PID.TID 0000.0001) %MON dynstat_eta_sd               =   0.0000000000000E+00
(PID.TID 0000.0001) %MON dynstat_eta_del2             =   0.0000000000000E+00
(PID.TID 0000.0001) %MON dynstat_uvel_max             =   0.0000000000000E+00
(PID.TID 0000.0001) %MON dynstat_uvel_min             =   0.0000000000000E+00
(PID.TID 0000.0001) %MON dynstat_uvel_mean            =   0.0000000000000E+00
(PID.TID 0000.0001) %MON dynstat_uvel_sd              =   0.0000000000000E+00
(PID.TID 0000.0001) %MON dynstat_uvel_del2            =   0.0000000000000E+00
(PID.TID 0000.0001) %MON dynstat_vvel_max             =   0.0000000000000E+00
(PID.TID 0000.0001) %MON dynstat_vvel_min             =   0.0000000000000E+00
(PID.TID 0000.0001) %MON dynstat_vvel_mean            =   0.0000000000000E+00
(PID.TID 0000.0001) %MON dynstat_vvel_sd              =   0.0000000000000E+00
(PID.TID 0000.0001) %MON dynstat_vvel_del2            =   0.0000000000000E+00
(PID.TID 0000.0001) %MON dynstat_wvel_max             =   0.0000000000000E+00
(PID.TID 0000.0001) %MON dynstat_wvel_min             =   0.0000000000000E+00
(PID.TID 0000.0001) %MON dynstat_wvel_mean            =   0.0000000000000E+00
(PID.TID 0000.0001) %MON dynstat_wvel_sd              =   0.0000000000000E+00
(PID.TID 0000.0001) %MON dynstat_wvel_del2            =   0.0000000000000E+00
(PID.TID 0000.0001) %MON dynstat_theta_max            =   2.0000000000000E+01
(PID.TID 0000.0001) %MON dynstat_theta_min            =   2.0000000000000E+01
(PID.TID 0000.0001) %MON dynstat_theta_mean           =   1.9999999999999E+01
(PID.TID 0000.0001) %MON dynstat_theta_sd             =   1.1972645097557E-12
(PID.TID 0000.0001) %MON dynstat_theta_del2           =   0.0000000000000E+00
(PID.TID 0000.0001) %MON dynstat_salt_max             =   3.0000000000000E+01
(PID.TID 0000.0001) %MON dynstat_salt_min             =   3.0000000000000E+01
(PID.TID 0000.0001) %MON dynstat_salt_mean            =   2.9999999999998E+01
(PID.TID 0000.0001) %MON dynstat_salt_sd              =   2.1529444893531E-12
(PID.TID 0000.0001) %MON dynstat_salt_del2            =   0.0000000000000E+00
(PID.TID 0000.0001) %MON trAdv_CFL_u_max              =   0.0000000000000E+00
(PID.TID 0000.0001) %MON trAdv_CFL_v_max              =   0.0000000000000E+00
(PID.TID 0000.0001) %MON trAdv_CFL_w_max              =   0.0000000000000E+00
(PID.TID 0000.0001) %MON advcfl_uvel_max              =   0.0000000000000E+00
(PID.TID 0000.0001) %MON advcfl_vvel_max              =   0.0000000000000E+00
(PID.TID 0000.0001) %MON advcfl_wvel_max              =   0.0000000000000E+00
(PID.TID 0000.0001) %MON advcfl_W_hf_max              =   0.0000000000000E+00
(PID.TID 0000.0001) %MON pe_b_mean                    =   0.0000000000000E+00
(PID.TID 0000.0001) %MON ke_max                       =   0.0000000000000E+00
(PID.TID 0000.0001) %MON ke_mean                      =   0.0000000000000E+00
(PID.TID 0000.0001) %MON ke_vol                       =   7.2529629296391E+15
(PID.TID 0000.0001) %MON vort_r_min                   =   0.0000000000000E+00
(PID.TID 0000.0001) %MON vort_r_max                   =   0.0000000000000E+00
(PID.TID 0000.0001) %MON vort_a_mean                  =   8.2300000000000E-05
(PID.TID 0000.0001) %MON vort_a_sd                    =   7.1297555115552E-06
(PID.TID 0000.0001) %MON vort_p_mean                  =   8.6919888360246E-05
(PID.TID 0000.0001) %MON vort_p_sd                    =   1.7818246499131E-05
(PID.TID 0000.0001) %MON surfExpan_theta_mean         =   0.0000000000000E+00
(PID.TID 0000.0001) %MON surfExpan_salt_mean          =   0.0000000000000E+00
(PID.TID 0000.0001) // =======================================================
(PID.TID 0000.0001) // End MONITOR dynamic field statistics
(PID.TID 0000.0001) // =======================================================
(PID.TID 0000.0001) SOLVE_FOR_PRESSURE: putPmEinXvector =    F
 cg2d: Sum(rhs),rhsMax =   1.11022302462516E-16  9.73592635192475E-05
 cg2d: Sum(rhs),rhsMax =  -7.02327085377874E-13  1.15786318361865E-04
 cg2d: Sum(rhs),rhsMax =   3.06277225803342E-12  1.40965044910050E-04
 cg2d: Sum(rhs),rhsMax =   5.75117731216324E-12  1.66424792285985E-04
 cg2d: Sum(rhs),rhsMax =  -4.80226969301611E-13  1.93531974506253E-04
 cg2d: Sum(rhs),rhsMax =  -2.07861505785445E-12  2.21051268892991E-04
 cg2d: Sum(rhs),rhsMax =  -6.81121825607534E-12  2.48418964895479E-04
 cg2d: Sum(rhs),rhsMax =  -6.35147490157806E-12  2.75497529609697E-04
 cg2d: Sum(rhs),rhsMax =  -1.18089982237279E-11  3.02245044066546E-04
 cg2d: Sum(rhs),rhsMax =  -8.19272427676765E-12  3.28652306993534E-04
 cg2d: Sum(rhs),rhsMax =  -8.87245832359440E-12  3.54730592727815E-04
 cg2d: Sum(rhs),rhsMax =  -7.18630710494494E-12  3.80522708237503E-04
 cg2d: Sum(rhs),rhsMax =  -1.00890962251299E-11  4.06041333538043E-04
 cg2d: Sum(rhs),rhsMax =  -1.39854794412031E-11  4.31321752116649E-04
 cg2d: Sum(rhs),rhsMax =  -1.39649680708231E-11  4.56392661603038E-04
 cg2d: Sum(rhs),rhsMax =  -2.10426398528085E-11  4.81277303503255E-04
(PID.TID 0000.0001)      cg2d_init_res =   9.56895098468359E-01
(PID.TID 0000.0001)      cg2d_iters(min,last) =      -1     579
(PID.TID 0000.0001)      cg2d_last_res =   9.58646616726842E-08
(PID.TID 0000.0001) // =======================================================
(PID.TID 0000.0001) // Begin MONITOR dynamic field statistics
(PID.TID 0000.0001) // =======================================================
(PID.TID 0000.0001) %MON time_tsnumber                =                    16
(PID.TID 0000.0001) %MON time_secondsf                =   8.6400000000000E+04
(PID.TID 0000.0001) %MON dynstat_eta_max              =   1.8977296142429E-03
(PID.TID 0000.0001) %MON dynstat_eta_min              =  -2.3223101943026E-03
(PID.TID 0000.0001) %MON dynstat_eta_mean             =   1.0843884587185E-15
(PID.TID 0000.0001) %MON dynstat_eta_sd               =   1.0204739174264E-03
(PID.TID 0000.0001) %MON dynstat_eta_del2             =   5.3596762583889E-09
(PID.TID 0000.0001) %MON dynstat_uvel_max             =   9.9902027475372E-04
(PID.TID 0000.0001) %MON dynstat_uvel_min             =  -9.8832043430294E-04
(PID.TID 0000.0001) %MON dynstat_uvel_mean            =  -1.1582752315269E-07
(PID.TID 0000.0001) %MON dynstat_uvel_sd              =   5.4601600691980E-04
(PID.TID 0000.0001) %MON dynstat_uvel_del2            =   7.2023334427814E-08
(PID.TID 0000.0001) %MON dynstat_vvel_max             =   1.6885807285993E-03
(PID.TID 0000.0001) %MON dynstat_vvel_min             =  -1.3129069548575E-03
(PID.TID 0000.0001) %MON dynstat_vvel_mean            =  -6.6120312250206E-08
(PID.TID 0000.0001) %MON dynstat_vvel_sd              =   5.5770565457540E-04
(PID.TID 0000.0001) %MON dynstat_vvel_del2            =   1.0993747739588E-07
(PID.TID 0000.0001) %MON dynstat_wvel_max             =   2.2808062445138E-08
(PID.TID 0000.0001) %MON dynstat_wvel_min             =  -1.9259405778471E-08
(PID.TID 0000.0001) %MON dynstat_wvel_mean            =   1.2916099224008E-23
(PID.TID 0000.0001) %MON dynstat_wvel_sd              =   1.1749148523664E-08
(PID.TID 0000.0001) %MON dynstat_wvel_del2            =   8.4410971641810E-14
(PID.TID 0000.0001) %MON dynstat_theta_max            =   2.0000000000000E+01
(PID.TID 0000.0001) %MON dynstat_theta_min            =   2.0000000000000E+01
(PID.TID 0000.0001) %MON dynstat_theta_mean           =   1.9999999999999E+01
(PID.TID 0000.0001) %MON dynstat_theta_sd             =   1.1972645097557E-12
(PID.TID 0000.0001) %MON dynstat_theta_del2           =   0.0000000000000E+00
(PID.TID 0000.0001) %MON dynstat_salt_max             =   3.0000000000000E+01
(PID.TID 0000.0001) %MON dynstat_salt_min             =   3.0000000000000E+01
(PID.TID 0000.0001) %MON dynstat_salt_mean            =   2.9999999999998E+01
(PID.TID 0000.0001) %MON dynstat_salt_sd              =   2.1529444893531E-12
(PID.TID 0000.0001) %MON dynstat_salt_del2            =   0.0000000000000E+00
(PID.TID 0000.0001) %MON trAdv_CFL_u_max              =   1.0110099301873E-03
(PID.TID 0000.0001) %MON trAdv_CFL_v_max              =   1.6998354573224E-03
(PID.TID 0000.0001) %MON trAdv_CFL_w_max              =   2.7287100492599E-08
(PID.TID 0000.0001) %MON advcfl_uvel_max              =   1.0789418967340E-03
(PID.TID 0000.0001) %MON advcfl_vvel_max              =   1.8236671868872E-03
(PID.TID 0000.0001) %MON advcfl_wvel_max              =   4.9265414881497E-08
(PID.TID 0000.0001) %MON advcfl_W_hf_max              =   0.0000000000000E+00
(PID.TID 0000.0001) %MON pe_b_mean                    =   1.0654610913548E-09
(PID.TID 0000.0001) %MON ke_max                       =   1.4255780913621E-06
(PID.TID 0000.0001) %MON ke_mean                      =   3.0321349640930E-07
(PID.TID 0000.0001) %MON ke_vol                       =   7.2529629296391E+15
(PID.TID 0000.0001) %MON vort_r_min                   =  -5.6381960746412E-09
(PID.TID 0000.0001) %MON vort_r_max                   =   1.6625250872649E-07
(PID.TID 0000.0001) %MON vort_a_mean                  =   8.2300000000000E-05
(PID.TID 0000.0001) %MON vort_a_sd                    =   7.1297701624517E-06
(PID.TID 0000.0001) %MON vort_p_mean                  =   8.6919888360246E-05
(PID.TID 0000.0001) %MON vort_p_sd                    =   1.7835518741764E-05
(PID.TID 0000.0001) %MON surfExpan_theta_mean         =   6.7686839234414E-22
(PID.TID 0000.0001) %MON surfExpan_salt_mean          =  -6.8494647751506E-22
(PID.TID 0000.0001) // =======================================================
(PID.TID 0000.0001) // End MONITOR dynamic field statistics
(PID.TID 0000.0001) // =======================================================
 cg2d: Sum(rhs),rhsMax =  -2.11086981227737E-11  5.06007244526310E-04
 cg2d: Sum(rhs),rhsMax =  -2.27493857085648E-11  5.30609139322496E-04
 cg2d: Sum(rhs),rhsMax =  -2.67225130912152E-11  5.55079243039296E-04
 cg2d: Sum(rhs),rhsMax =  -3.25748039653462E-11  5.79477159384322E-04
 cg2d: Sum(rhs),rhsMax =  -3.85720344553420E-11  6.03774869058260E-04
 cg2d: Sum(rhs),rhsMax =  -4.00021404889372E-11  6.28024247329802E-04
 cg2d: Sum(rhs),rhsMax =  -3.94965449235229E-11  6.52216354240540E-04
 cg2d: Sum(rhs),rhsMax =  -4.34528524273503E-11  6.76356265774084E-04
 cg2d: Sum(rhs),rhsMax =  -4.85620987866753E-11  7.00492772370623E-04
 cg2d: Sum(rhs),rhsMax =  -5.35418376301777E-11  7.24602151639063E-04
 cg2d: Sum(rhs),rhsMax =  -5.80034353880876E-11  7.48693567570014E-04
 cg2d: Sum(rhs),rhsMax =  -5.90583693060864E-11  7.72781277208023E-04
 cg2d: Sum(rhs),rhsMax =  -6.32264102184976E-11  7.96893276050326E-04
 cg2d: Sum(rhs),rhsMax =  -6.57207066545595E-11  8.21011580226280E-04
 cg2d: Sum(rhs),rhsMax =  -7.08272746008376E-11  8.45142853744261E-04
 cg2d: Sum(rhs),rhsMax =  -7.80635139863151E-11  8.69293069792684E-04
(PID.TID 0000.0001)      cg2d_init_res =   4.85972645987888E-01
(PID.TID 0000.0001)      cg2d_iters(min,last) =      -1     578
(PID.TID 0000.0001)      cg2d_last_res =   9.53391466039220E-08
(PID.TID 0000.0001) // =======================================================
(PID.TID 0000.0001) // Begin MONITOR dynamic field statistics
(PID.TID 0000.0001) // =======================================================
(PID.TID 0000.0001) %MON time_tsnumber                =                    32
(PID.TID 0000.0001) %MON time_secondsf                =   1.7280000000000E+05
(PID.TID 0000.0001) %MON dynstat_eta_max              =   3.8531781251346E-03
(PID.TID 0000.0001) %MON dynstat_eta_min              =  -3.8946713331931E-03
(PID.TID 0000.0001) %MON dynstat_eta_mean             =   7.0781713121747E-15
(PID.TID 0000.0001) %MON dynstat_eta_sd               =   2.0025492281003E-03
(PID.TID 0000.0001) %MON dynstat_eta_del2             =   1.2731283752612E-08
(PID.TID 0000.0001) %MON dynstat_uvel_max             =   2.0214510359663E-03
(PID.TID 0000.0001) %MON dynstat_uvel_min             =  -1.9376919328033E-03
(PID.TID 0000.0001) %MON dynstat_uvel_mean            =  -2.2795208616671E-07
(PID.TID 0000.0001) %MON dynstat_uvel_sd              =   1.0714646888427E-03
(PID.TID 0000.0001) %MON dynstat_uvel_del2            =   1.1628007983690E-07
(PID.TID 0000.0001) %MON dynstat_vvel_max             =   3.6835701641665E-03
(PID.TID 0000.0001) %MON dynstat_vvel_min             =  -2.2487331205190E-03
(PID.TID 0000.0001) %MON dynstat_vvel_mean            =  -4.6996339826646E-08
(PID.TID 0000.0001) %MON dynstat_vvel_sd              =   1.1088541043705E-03
(PID.TID 0000.0001) %MON dynstat_vvel_del2            =   1.8792470866634E-07
(PID.TID 0000.0001) %MON dynstat_wvel_max             =   2.3331072851506E-08
(PID.TID 0000.0001) %MON dynstat_wvel_min             =  -1.8205635579076E-08
(PID.TID 0000.0001) %MON dynstat_wvel_mean            =   5.4532746846625E-22
(PID.TID 0000.0001) %MON dynstat_wvel_sd              =   1.1612671247571E-08
(PID.TID 0000.0001) %MON dynstat_wvel_del2            =   9.0219055740739E-14
(PID.TID 0000.0001) %MON dynstat_theta_max            =   2.0000000000000E+01
(PID.TID 0000.0001) %MON dynstat_theta_min            =   2.0000000000000E+01
(PID.TID 0000.0001) %MON dynstat_theta_mean           =   1.9999999999999E+01
(PID.TID 0000.0001) %MON dynstat_theta_sd             =   1.1972645097557E-12
(PID.TID 0000.0001) %MON dynstat_theta_del2           =   0.0000000000000E+00
(PID.TID 0000.0001) %MON dynstat_salt_max             =   3.0000000000000E+01
(PID.TID 0000.0001) %MON dynstat_salt_min             =   3.0000000000000E+01
(PID.TID 0000.0001) %MON dynstat_salt_mean            =   2.9999999999998E+01
(PID.TID 0000.0001) %MON dynstat_salt_sd              =   2.1529444893531E-12
(PID.TID 0000.0001) %MON dynstat_salt_del2            =   0.0000000000000E+00
(PID.TID 0000.0001) %MON trAdv_CFL_u_max              =   2.1129281692191E-03
(PID.TID 0000.0001) %MON trAdv_CFL_v_max              =   3.8336746962863E-03
(PID.TID 0000.0001) %MON trAdv_CFL_w_max              =   2.7704642697606E-08
(PID.TID 0000.0001) %MON advcfl_uvel_max              =   2.1831671188436E-03
(PID.TID 0000.0001) %MON advcfl_vvel_max              =   3.9782557772998E-03
(PID.TID 0000.0001) %MON advcfl_wvel_max              =   5.0395117359253E-08
(PID.TID 0000.0001) %MON advcfl_W_hf_max              =   0.0000000000000E+00
(PID.TID 0000.0001) %MON pe_b_mean                    =   4.1029873584895E-09
(PID.TID 0000.0001) %MON ke_max                       =   6.7840202117666E-06
(PID.TID 0000.0001) %MON ke_mean                      =   1.1834458013438E-06
(PID.TID 0000.0001) %MON ke_vol                       =   7.2529629296391E+15
(PID.TID 0000.0001) %MON vort_r_min                   =  -1.4135991107121E-08
(PID.TID 0000.0001) %MON vort_r_max                   =   2.8098453956996E-07
(PID.TID 0000.0001) %MON vort_a_mean                  =   8.2300000000000E-05
(PID.TID 0000.0001) %MON vort_a_sd                    =   7.1298024981876E-06
(PID.TID 0000.0001) %MON vort_p_mean                  =   8.6919888360246E-05
(PID.TID 0000.0001) %MON vort_p_sd                    =   1.7842911554010E-05
(PID.TID 0000.0001) %MON surfExpan_theta_mean         =   1.0912364717088E-20
(PID.TID 0000.0001) %MON surfExpan_salt_mean          =   1.5917489930251E-20
(PID.TID 0000.0001) // =======================================================
(PID.TID 0000.0001) // End MONITOR dynamic field statistics
(PID.TID 0000.0001) // =======================================================
 cg2d: Sum(rhs),rhsMax =  -8.33905028363446E-11  8.93467581210022E-04
 cg2d: Sum(rhs),rhsMax =  -8.43271424910697E-11  9.17679467319584E-04
 cg2d: Sum(rhs),rhsMax =  -9.05329838873925E-11  9.41937152254628E-04
 cg2d: Sum(rhs),rhsMax =  -9.03210145564159E-11  9.66231248955768E-04
 cg2d: Sum(rhs),rhsMax =  -9.68009561397309E-11  9.90565162567162E-04
 cg2d: Sum(rhs),rhsMax =  -1.04738731576681E-10  1.01494191865959E-03
 cg2d: Sum(rhs),rhsMax =  -1.11843895256314E-10  1.03936419711457E-03
 cg2d: Sum(rhs),rhsMax =  -1.19391621589138E-10  1.06383436077104E-03
 cg2d: Sum(rhs),rhsMax =  -1.27839461239176E-10  1.08835448174429E-03
 cg2d: Sum(rhs),rhsMax =  -1.35212438467924E-10  1.11292636475271E-03
 cg2d: Sum(rhs),rhsMax =  -1.44743744767695E-10  1.13755156808108E-03
 cg2d: Sum(rhs),rhsMax =  -1.50120985087376E-10  1.16223142240913E-03
 cg2d: Sum(rhs),rhsMax =  -1.61227226014304E-10  1.18696704777576E-03
 cg2d: Sum(rhs),rhsMax =  -1.65963701115324E-10  1.21175936889834E-03
 cg2d: Sum(rhs),rhsMax =  -1.79633752317443E-10  1.23660912903869E-03
 cg2d: Sum(rhs),rhsMax =  -1.87795667905277E-10  1.26151690258239E-03
(PID.TID 0000.0001)      cg2d_init_res =   3.37729072211204E-01
(PID.TID 0000.0001)      cg2d_iters(min,last) =      -1     577
(PID.TID 0000.0001)      cg2d_last_res =   9.55987890981577E-08
(PID.TID 0000.0001) // =======================================================
(PID.TID 0000.0001) // Begin MONITOR dynamic field statistics
(PID.TID 0000.0001) // =======================================================
(PID.TID 0000.0001) %MON time_tsnumber                =                    48
(PID.TID 0000.0001) %MON time_secondsf                =   2.5920000000000E+05
(PID.TID 0000.0001) %MON dynstat_eta_max              =   5.8110547178019E-03
(PID.TID 0000.0001) %MON dynstat_eta_min              =  -5.3615065211908E-03
(PID.TID 0000.0001) %MON dynstat_eta_mean             =   2.4426425186481E-14
(PID.TID 0000.0001) %MON dynstat_eta_sd               =   2.9661830769230E-03
(PID.TID 0000.0001) %MON dynstat_eta_del2             =   2.0319025842756E-08
(PID.TID 0000.0001) %MON dynstat_uvel_max             =   3.0848802804563E-03
(PID.TID 0000.0001) %MON dynstat_uvel_min             =  -2.8143153437748E-03
(PID.TID 0000.0001) %MON dynstat_uvel_mean            =  -3.2448358918291E-07
(PID.TID 0000.0001) %MON dynstat_uvel_sd              =   1.5682669935658E-03
(PID.TID 0000.0001) %MON dynstat_uvel_del2            =   1.4238327456609E-07
(PID.TID 0000.0001) %MON dynstat_vvel_max             =   5.9600055712932E-03
(PID.TID 0000.0001) %MON dynstat_vvel_min             =  -2.8754082581104E-03
(PID.TID 0000.0001) %MON dynstat_vvel_mean            =  -1.6679674113192E-08
(PID.TID 0000.0001) %MON dynstat_vvel_sd              =   1.6585975033093E-03
(PID.TID 0000.0001) %MON dynstat_vvel_del2            =   2.5244146259742E-07
(PID.TID 0000.0001) %MON dynstat_wvel_max             =   2.4124642946554E-08
(PID.TID 0000.0001) %MON dynstat_wvel_min             =  -1.6783086655977E-08
(PID.TID 0000.0001) %MON dynstat_wvel_mean            =   4.0910197658102E-22
(PID.TID 0000.0001) %MON dynstat_wvel_sd              =   1.1427809719496E-08
(PID.TID 0000.0001) %MON dynstat_wvel_del2            =   9.4530752851340E-14
(PID.TID 0000.0001) %MON dynstat_theta_max            =   2.0000000000000E+01
(PID.TID 0000.0001) %MON dynstat_theta_min            =   2.0000000000000E+01
(PID.TID 0000.0001) %MON dynstat_theta_mean           =   1.9999999999999E+01
(PID.TID 0000.0001) %MON dynstat_theta_sd             =   1.1972645097557E-12
(PID.TID 0000.0001) %MON dynstat_theta_del2           =   0.0000000000000E+00
(PID.TID 0000.0001) %MON dynstat_salt_max             =   3.0000000000000E+01
(PID.TID 0000.0001) %MON dynstat_salt_min             =   3.0000000000000E+01
(PID.TID 0000.0001) %MON dynstat_salt_mean            =   2.9999999999998E+01
(PID.TID 0000.0001) %MON dynstat_salt_sd              =   2.1529444893531E-12
(PID.TID 0000.0001) %MON dynstat_salt_del2            =   0.0000000000000E+00
(PID.TID 0000.0001) %MON trAdv_CFL_u_max              =   3.2581233474258E-03
(PID.TID 0000.0001) %MON trAdv_CFL_v_max              =   6.2724874389739E-03
(PID.TID 0000.0001) %MON trAdv_CFL_w_max              =   2.8383604894464E-08
(PID.TID 0000.0001) %MON advcfl_uvel_max              =   3.3316707028928E-03
(PID.TID 0000.0001) %MON advcfl_vvel_max              =   6.4368060169967E-03
(PID.TID 0000.0001) %MON advcfl_wvel_max              =   5.2109228764556E-08
(PID.TID 0000.0001) %MON advcfl_W_hf_max              =   0.0000000000000E+00
(PID.TID 0000.0001) %MON pe_b_mean                    =   9.0018066894672E-09
(PID.TID 0000.0001) %MON ke_max                       =   1.7759367401211E-05
(PID.TID 0000.0001) %MON ke_mean                      =   2.5934765605823E-06
(PID.TID 0000.0001) %MON ke_vol                       =   7.2529629296391E+15
(PID.TID 0000.0001) %MON vort_r_min                   =  -2.5776603356365E-08
(PID.TID 0000.0001) %MON vort_r_max                   =   4.3902636720042E-07
(PID.TID 0000.0001) %MON vort_a_mean                  =   8.2300000000000E-05
(PID.TID 0000.0001) %MON vort_a_sd                    =   7.1298507373138E-06
(PID.TID 0000.0001) %MON vort_p_mean                  =   8.6919888360246E-05
(PID.TID 0000.0001) %MON vort_p_sd                    =   1.7848331283280E-05
(PID.TID 0000.0001) %MON surfExpan_theta_mean         =   8.3104099611159E-21
(PID.TID 0000.0001) %MON surfExpan_salt_mean          =   1.2019065907924E-20
(PID.TID 0000.0001) // =======================================================
(PID.TID 0000.0001) // End MONITOR dynamic field statistics
(PID.TID 0000.0001) // =======================================================
 cg2d: Sum(rhs),rhsMax =  -1.96941879471169E-10  1.28648310647337E-03
 cg2d: Sum(rhs),rhsMax =  -2.02850722330616E-10  1.31150965628598E-03
 cg2d: Sum(rhs),rhsMax =  -2.13186412967303E-10  1.33659504701160E-03
 cg2d: Sum(rhs),rhsMax =  -2.22874010913365E-10  1.36173821821363E-03
 cg2d: Sum(rhs),rhsMax =  -2.29930019468583E-10  1.38693903477903E-03
 cg2d: Sum(rhs),rhsMax =  -2.39355688047560E-10  1.41219724792849E-03
 cg2d: Sum(rhs),rhsMax =  -2.49896547899198E-10  1.43751332423221E-03
 cg2d: Sum(rhs),rhsMax =  -2.65070534966050E-10  1.46288896801125E-03
 cg2d: Sum(rhs),rhsMax =  -2.73598352307225E-10  1.48832179118695E-03
 cg2d: Sum(rhs),rhsMax =  -2.81871623264429E-10  1.51381117199426E-03
 cg2d: Sum(rhs),rhsMax =  -3.02478195268741E-10  1.53935640307252E-03
 cg2d: Sum(rhs),rhsMax =  -3.16095503938296E-10  1.56495669737255E-03
 cg2d: Sum(rhs),rhsMax =  -3.34353690567557E-10  1.59061119208234E-03
 cg2d: Sum(rhs),rhsMax =  -3.47104706088786E-10  1.61631895257801E-03
 cg2d: Sum(rhs),rhsMax =  -3.61341637167278E-10  1.64207897613186E-03
 cg2d: Sum(rhs),rhsMax =  -3.81965813145424E-10  1.66789019536324E-03
(PID.TID 0000.0001)      cg2d_init_res =   2.64699860515307E-01
(PID.TID 0000.0001)      cg2d_iters(min,last) =      -1     576
(PID.TID 0000.0001)      cg2d_last_res =   9.73474823199148E-08
(PID.TID 0000.0001) // =======================================================
(PID.TID 0000.0001) // Begin MONITOR dynamic field statistics
(PID.TID 0000.0001) // =======================================================
(PID.TID 0000.0001) %MON time_tsnumber                =                    64
(PID.TID 0000.0001) %MON time_secondsf                =   3.4560000000000E+05
(PID.TID 0000.0001) %MON dynstat_eta_max              =   7.7714328929932E-03
(PID.TID 0000.0001) %MON dynstat_eta_min              =  -6.6938570431931E-03
(PID.TID 0000.0001) %MON dynstat_eta_mean             =   6.4709905119092E-14
(PID.TID 0000.0001) %MON dynstat_eta_sd               =   3.8914954110970E-03
(PID.TID 0000.0001) %MON dynstat_eta_del2             =   2.8190057898102E-08
(PID.TID 0000.0001) %MON dynstat_uvel_max             =   4.1975504383671E-03
(PID.TID 0000.0001) %MON dynstat_uvel_min             =  -3.5898953775622E-03
(PID.TID 0000.0001) %MON dynstat_uvel_mean            =  -4.0115688432904E-07
(PID.TID 0000.0001) %MON dynstat_uvel_sd              =   2.0285578333029E-03
(PID.TID 0000.0001) %MON dynstat_uvel_del2            =   1.5916563084898E-07
(PID.TID 0000.0001) %MON dynstat_vvel_max             =   8.5203144956378E-03
(PID.TID 0000.0001) %MON dynstat_vvel_min             =  -3.2517357070224E-03
(PID.TID 0000.0001) %MON dynstat_vvel_mean            =   2.2357728068631E-08
(PID.TID 0000.0001) %MON dynstat_vvel_sd              =   2.2076832719488E-03
(PID.TID 0000.0001) %MON dynstat_vvel_del2            =   3.1632838292757E-07
(PID.TID 0000.0001) %MON dynstat_wvel_max             =   2.5044355165010E-08
(PID.TID 0000.0001) %MON dynstat_wvel_min             =  -1.5036748737299E-08
(PID.TID 0000.0001) %MON dynstat_wvel_mean            =  -5.6779545629224E-26
(PID.TID 0000.0001) %MON dynstat_wvel_sd              =   1.1189768002394E-08
(PID.TID 0000.0001) %MON dynstat_wvel_del2            =   1.0005268350687E-13
(PID.TID 0000.0001) %MON dynstat_theta_max            =   2.0000000000000E+01
(PID.TID 0000.0001) %MON dynstat_theta_min            =   2.0000000000000E+01
(PID.TID 0000.0001) %MON dynstat_theta_mean           =   1.9999999999999E+01
(PID.TID 0000.0001) %MON dynstat_theta_sd             =   1.1972645097557E-12
(PID.TID 0000.0001) %MON dynstat_theta_del2           =   0.0000000000000E+00
(PID.TID 0000.0001) %MON dynstat_salt_max             =   3.0000000000000E+01
(PID.TID 0000.0001) %MON dynstat_salt_min             =   3.0000000000000E+01
(PID.TID 0000.0001) %MON dynstat_salt_mean            =   2.9999999999998E+01
(PID.TID 0000.0001) %MON dynstat_salt_sd              =   2.1529444893531E-12
(PID.TID 0000.0001) %MON dynstat_salt_del2            =   0.0000000000000E+00
(PID.TID 0000.0001) %MON trAdv_CFL_u_max              =   4.4562352581158E-03
(PID.TID 0000.0001) %MON trAdv_CFL_v_max              =   9.0221816674547E-03
(PID.TID 0000.0001) %MON trAdv_CFL_w_max              =   2.9195272080825E-08
(PID.TID 0000.0001) %MON advcfl_uvel_max              =   4.5333544734364E-03
(PID.TID 0000.0001) %MON advcfl_vvel_max              =   9.2019396552888E-03
(PID.TID 0000.0001) %MON advcfl_wvel_max              =   5.4095807156421E-08
(PID.TID 0000.0001) %MON advcfl_W_hf_max              =   0.0000000000000E+00
(PID.TID 0000.0001) %MON pe_b_mean                    =   1.5494116680420E-08
(PID.TID 0000.0001) %MON ke_max                       =   3.6297681980361E-05
(PID.TID 0000.0001) %MON ke_mean                      =   4.4742249788816E-06
(PID.TID 0000.0001) %MON ke_vol                       =   7.2529629296391E+15
(PID.TID 0000.0001) %MON vort_r_min                   =  -4.0744417858442E-08
(PID.TID 0000.0001) %MON vort_r_max                   =   6.0401831909714E-07
(PID.TID 0000.0001) %MON vort_a_mean                  =   8.2300000000000E-05
(PID.TID 0000.0001) %MON vort_a_sd                    =   7.1299164474098E-06
(PID.TID 0000.0001) %MON vort_p_mean                  =   8.6919888360246E-05
(PID.TID 0000.0001) %MON vort_p_sd                    =   1.7852819380876E-05
(PID.TID 0000.0001) %MON surfExpan_theta_mean         =   4.5181153051417E-22
(PID.TID 0000.0001) %MON surfExpan_salt_mean          =   5.8709245190037E-22
(PID.TID 0000.0001) // =======================================================
(PID.TID 0000.0001) // End MONITOR dynamic field statistics
(PID.TID 0000.0001) // =======================================================
 cg2d: Sum(rhs),rhsMax =  -3.94524947433528E-10  1.69375148148215E-03
 cg2d: Sum(rhs),rhsMax =  -4.12153131068571E-10  1.71966164732640E-03
 cg2d: Sum(rhs),rhsMax =  -4.28201224478286E-10  1.74561945021876E-03
 cg2d: Sum(rhs),rhsMax =  -4.41273670381825E-10  1.77162359465378E-03
 cg2d: Sum(rhs),rhsMax =  -4.59061434698871E-10  1.79767273483306E-03
 cg2d: Sum(rhs),rhsMax =  -4.76694572704162E-10  1.82376547705767E-03
 cg2d: Sum(rhs),rhsMax =  -4.93660376466032E-10  1.84990038199178E-03
 cg2d: Sum(rhs),rhsMax =  -5.09008120375132E-10  1.87607596680486E-03
 cg2d: Sum(rhs),rhsMax =  -5.22960438842368E-10  1.90229070720688E-03
 cg2d: Sum(rhs),rhsMax =  -5.39047272096749E-10  1.92854303937834E-03
 cg2d: Sum(rhs),rhsMax =  -5.56695474440705E-10  1.95483136180997E-03
 cg2d: Sum(rhs),rhsMax =  -5.73427805239390E-10  1.98115403705285E-03
 cg2d: Sum(rhs),rhsMax =  -5.90526433308369E-10  2.00752587082907E-03
 cg2d: Sum(rhs),rhsMax =  -6.10589738492262E-10  2.03394073657621E-03
 cg2d: Sum(rhs),rhsMax =  -6.22859083754257E-10  2.06038639718333E-03
 cg2d: Sum(rhs),rhsMax =  -6.42841682663153E-10  2.08686110613003E-03
(PID.TID 0000.0001)      cg2d_init_res =   2.19609124255632E-01
(PID.TID 0000.0001)      cg2d_iters(min,last) =      -1     576
(PID.TID 0000.0001)      cg2d_last_res =   9.22917249181644E-08
(PID.TID 0000.0001) // =======================================================
(PID.TID 0000.0001) // Begin MONITOR dynamic field statistics
(PID.TID 0000.0001) // =======================================================
(PID.TID 0000.0001) %MON time_tsnumber                =                    80
(PID.TID 0000.0001) %MON time_secondsf                =   4.3200000000000E+05
(PID.TID 0000.0001) %MON dynstat_eta_max              =   9.7289505464339E-03
(PID.TID 0000.0001) %MON dynstat_eta_min              =  -7.8677356710731E-03
(PID.TID 0000.0001) %MON dynstat_eta_mean             =   1.3462317575347E-13
(PID.TID 0000.0001) %MON dynstat_eta_sd               =   4.7658962725534E-03
(PID.TID 0000.0001) %MON dynstat_eta_del2             =   3.6439982736028E-08
(PID.TID 0000.0001) %MON dynstat_uvel_max             =   5.3596074103299E-03
(PID.TID 0000.0001) %MON dynstat_uvel_min             =  -4.2439582470364E-03
(PID.TID 0000.0001) %MON dynstat_uvel_mean            =  -4.5483002323117E-07
(PID.TID 0000.0001) %MON dynstat_uvel_sd              =   2.4467375010210E-03
(PID.TID 0000.0001) %MON dynstat_uvel_del2            =   1.7016575926904E-07
(PID.TID 0000.0001) %MON dynstat_vvel_max             =   1.1282986833755E-02
(PID.TID 0000.0001) %MON dynstat_vvel_min             =  -3.4309207545542E-03
(PID.TID 0000.0001) %MON dynstat_vvel_mean            =   6.7138536414432E-08
(PID.TID 0000.0001) %MON dynstat_vvel_sd              =   2.7540685092976E-03
(PID.TID 0000.0001) %MON dynstat_vvel_del2            =   3.8208568430365E-07
(PID.TID 0000.0001) %MON dynstat_wvel_max             =   2.5979706364160E-08
(PID.TID 0000.0001) %MON dynstat_wvel_min             =  -1.3045589082540E-08
(PID.TID 0000.0001) %MON dynstat_wvel_mean            =  -3.9304057908587E-22
(PID.TID 0000.0001) %MON dynstat_wvel_sd              =   1.0900221899536E-08
(PID.TID 0000.0001) %MON dynstat_wvel_del2            =   1.0588831711947E-13
(PID.TID 0000.0001) %MON dynstat_theta_max            =   2.0000000000000E+01
(PID.TID 0000.0001) %MON dynstat_theta_min            =   2.0000000000000E+01
(PID.TID 0000.0001) %MON dynstat_theta_mean           =   1.9999999999999E+01
(PID.TID 0000.0001) %MON dynstat_theta_sd             =   1.1972645097557E-12
(PID.TID 0000.0001) %MON dynstat_theta_del2           =   0.0000000000000E+00
(PID.TID 0000.0001) %MON dynstat_salt_max             =   3.0000000000000E+01
(PID.TID 0000.0001) %MON dynstat_salt_min             =   3.0000000000000E+01
(PID.TID 0000.0001) %MON dynstat_salt_mean            =   2.9999999999998E+01
(PID.TID 0000.0001) %MON dynstat_salt_sd              =   2.1529444893531E-12
(PID.TID 0000.0001) %MON dynstat_salt_del2            =   0.0000000000000E+00
(PID.TID 0000.0001) %MON trAdv_CFL_u_max              =   5.7078971182732E-03
(PID.TID 0000.0001) %MON trAdv_CFL_v_max              =   1.1993883718893E-02
(PID.TID 0000.0001) %MON trAdv_CFL_w_max              =   3.0028869310163E-08
(PID.TID 0000.0001) %MON advcfl_uvel_max              =   5.7883760031563E-03
(PID.TID 0000.0001) %MON advcfl_vvel_max              =   1.2185625780456E-02
(PID.TID 0000.0001) %MON advcfl_wvel_max              =   5.6116165746585E-08
(PID.TID 0000.0001) %MON advcfl_W_hf_max              =   0.0000000000000E+00
(PID.TID 0000.0001) %MON pe_b_mean                    =   2.3239294984818E-08
(PID.TID 0000.0001) %MON ke_max                       =   6.3650054235661E-05
(PID.TID 0000.0001) %MON ke_mean                      =   6.7551639235223E-06
(PID.TID 0000.0001) %MON ke_vol                       =   7.2529629296391E+15
(PID.TID 0000.0001) %MON vort_r_min                   =  -5.9290107561915E-08
(PID.TID 0000.0001) %MON vort_r_max                   =   7.7527578628104E-07
(PID.TID 0000.0001) %MON vort_a_mean                  =   8.2300000000001E-05
(PID.TID 0000.0001) %MON vort_a_sd                    =   7.1300018782699E-06
(PID.TID 0000.0001) %MON vort_p_mean                  =   8.6919888360247E-05
(PID.TID 0000.0001) %MON vort_p_sd                    =   1.7856755934279E-05
(PID.TID 0000.0001) %MON surfExpan_theta_mean         =  -7.8417917865411E-21
(PID.TID 0000.0001) %MON surfExpan_salt_mean          =  -1.1911437164424E-20
(PID.TID 0000.0001) // =======================================================
(PID.TID 0000.0001) // End MONITOR dynamic field statistics
(PID.TID 0000.0001) // =======================================================
 cg2d: Sum(rhs),rhsMax =  -6.61981330862815E-10  2.11336308853051E-03
 cg2d: Sum(rhs),rhsMax =  -6.82539476326571E-10  2.13989054247652E-03
 cg2d: Sum(rhs),rhsMax =  -7.07027103530322E-10  2.16644164032875E-03
 cg2d: Sum(rhs),rhsMax =  -7.27518413567996E-10  2.19301452996054E-03
 cg2d: Sum(rhs),rhsMax =  -7.49184353443511E-10  2.21960733595826E-03
 cg2d: Sum(rhs),rhsMax =  -7.74913466727867E-10  2.24621816062764E-03
 cg2d: Sum(rhs),rhsMax =  -8.01798169525192E-10  2.27284508570012E-03
 cg2d: Sum(rhs),rhsMax =  -8.29196628027162E-10  2.29948766244487E-03
 cg2d: Sum(rhs),rhsMax =  -8.57234679074725E-10  2.32618267403501E-03
 cg2d: Sum(rhs),rhsMax =  -8.88465842563413E-10  2.35288966769152E-03
 cg2d: Sum(rhs),rhsMax =  -9.21646342577631E-10  2.37960666920069E-03
 cg2d: Sum(rhs),rhsMax =  -9.54534756791858E-10  2.40633168819216E-03
 cg2d: Sum(rhs),rhsMax =  -9.86870904440273E-10  2.43306271922262E-03
 cg2d: Sum(rhs),rhsMax =  -1.01866495794134E-09  2.45979774254599E-03
 cg2d: Sum(rhs),rhsMax =  -1.05338396338972E-09  2.48653472508953E-03
 cg2d: Sum(rhs),rhsMax =  -1.08977897539386E-09  2.51327162123214E-03
(PID.TID 0000.0001)      cg2d_init_res =   1.87716469922498E-01
(PID.TID 0000.0001)      cg2d_iters(min,last) =      -1     575
(PID.TID 0000.0001)      cg2d_last_res =   9.61708341023290E-08
(PID.TID 0000.0001) // =======================================================
(PID.TID 0000.0001) // Begin MONITOR dynamic field statistics
(PID.TID 0000.0001) // =======================================================
(PID.TID 0000.0001) %MON time_tsnumber                =                    96
(PID.TID 0000.0001) %MON time_secondsf                =   5.1840000000000E+05
(PID.TID 0000.0001) %MON dynstat_eta_max              =   1.1674563166188E-02
(PID.TID 0000.0001) %MON dynstat_eta_min              =  -8.8664466050142E-03
(PID.TID 0000.0001) %MON dynstat_eta_mean             =   2.7548325007429E-13
(PID.TID 0000.0001) %MON dynstat_eta_sd               =   5.5789649933153E-03
(PID.TID 0000.0001) %MON dynstat_eta_del2             =   4.5092045832517E-08
(PID.TID 0000.0001) %MON dynstat_uvel_max             =   6.5686817505197E-03
(PID.TID 0000.0001) %MON dynstat_uvel_min             =  -4.7652476539556E-03
(PID.TID 0000.0001) %MON dynstat_uvel_mean            =  -4.8381166202301E-07
(PID.TID 0000.0001) %MON dynstat_uvel_sd              =   2.8200156816069E-03
(PID.TID 0000.0001) %MON dynstat_uvel_del2            =   1.7750984981462E-07
(PID.TID 0000.0001) %MON dynstat_vvel_max             =   1.4194370317794E-02
(PID.TID 0000.0001) %MON dynstat_vvel_min             =  -3.4788502722054E-03
(PID.TID 0000.0001) %MON dynstat_vvel_mean            =   1.1437194617103E-07
(PID.TID 0000.0001) %MON dynstat_vvel_sd              =   3.2933667482045E-03
(PID.TID 0000.0001) %MON dynstat_vvel_del2            =   4.4910815854897E-07
(PID.TID 0000.0001) %MON dynstat_wvel_max             =   2.6843825350225E-08
(PID.TID 0000.0001) %MON dynstat_wvel_min             =  -1.0905244917307E-08
(PID.TID 0000.0001) %MON dynstat_wvel_mean            =  -1.4215650467719E-22
(PID.TID 0000.0001) %MON dynstat_wvel_sd              =   1.0566214766428E-08
(PID.TID 0000.0001) %MON dynstat_wvel_del2            =   1.1127843514181E-13
(PID.TID 0000.0001) %MON dynstat_theta_max            =   2.0000000000000E+01
(PID.TID 0000.0001) %MON dynstat_theta_min            =   2.0000000000000E+01
(PID.TID 0000.0001) %MON dynstat_theta_mean           =   1.9999999999999E+01
(PID.TID 0000.0001) %MON dynstat_theta_sd             =   1.1972645097557E-12
(PID.TID 0000.0001) %MON dynstat_theta_del2           =   0.0000000000000E+00
(PID.TID 0000.0001) %MON dynstat_salt_max             =   3.0000000000000E+01
(PID.TID 0000.0001) %MON dynstat_salt_min             =   3.0000000000000E+01
(PID.TID 0000.0001) %MON dynstat_salt_mean            =   2.9999999999998E+01
(PID.TID 0000.0001) %MON dynstat_salt_sd              =   2.1529444893531E-12
(PID.TID 0000.0001) %MON dynstat_salt_del2            =   0.0000000000000E+00
(PID.TID 0000.0001) %MON trAdv_CFL_u_max              =   7.0105102405976E-03
(PID.TID 0000.0001) %MON trAdv_CFL_v_max              =   1.5129884990064E-02
(PID.TID 0000.0001) %MON trAdv_CFL_w_max              =   3.0799788477457E-08
(PID.TID 0000.0001) %MON advcfl_uvel_max              =   7.0941762905613E-03
(PID.TID 0000.0001) %MON advcfl_vvel_max              =   1.5329919943217E-02
(PID.TID 0000.0001) %MON advcfl_wvel_max              =   5.7982662756485E-08
(PID.TID 0000.0001) %MON advcfl_W_hf_max              =   0.0000000000000E+00
(PID.TID 0000.0001) %MON pe_b_mean                    =   3.1844985060634E-08
(PID.TID 0000.0001) %MON ke_max                       =   1.0073561335746E-04
(PID.TID 0000.0001) %MON ke_mean                      =   9.3570664436507E-06
(PID.TID 0000.0001) %MON ke_vol                       =   7.2529629296391E+15
(PID.TID 0000.0001) %MON vort_r_min                   =  -8.1195230461294E-08
(PID.TID 0000.0001) %MON vort_r_max                   =   9.5055727260912E-07
(PID.TID 0000.0001) %MON vort_a_mean                  =   8.2299999999999E-05
(PID.TID 0000.0001) %MON vort_a_sd                    =   7.1301088786276E-06
(PID.TID 0000.0001) %MON vort_p_mean                  =   8.6919888360246E-05
(PID.TID 0000.0001) %MON vort_p_sd                    =   1.7860328104430E-05
(PID.TID 0000.0001) %MON surfExpan_theta_mean         =  -2.8193832283606E-21
(PID.TID 0000.0001) %MON surfExpan_salt_mean          =  -4.5482155655257E-21
(PID.TID 0000.0001) // =======================================================
(PID.TID 0000.0001) // End MONITOR dynamic field statistics
(PID.TID 0000.0001) // =======================================================
 cg2d: Sum(rhs),rhsMax =  -1.12372322558230E-09  2.54000637369967E-03
 cg2d: Sum(rhs),rhsMax =  -1.16226234192496E-09  2.56676770177399E-03
 cg2d: Sum(rhs),rhsMax =  -1.20559832256228E-09  2.59354702156983E-03
 cg2d: Sum(rhs),rhsMax =  -1.24279201513255E-09  2.62031989153409E-03
 cg2d: Sum(rhs),rhsMax =  -1.28418781858430E-09  2.64708423226789E-03
 cg2d: Sum(rhs),rhsMax =  -1.32433489175021E-09  2.67383795636197E-03
 cg2d: Sum(rhs),rhsMax =  -1.37223846868872E-09  2.70057896915962E-03
 cg2d: Sum(rhs),rhsMax =  -1.41761297839382E-09  2.72730516943258E-03
 cg2d: Sum(rhs),rhsMax =  -1.46566642850177E-09  2.75401445010663E-03
 cg2d: Sum(rhs),rhsMax =  -1.51542346032985E-09  2.78071811614900E-03
 cg2d: Sum(rhs),rhsMax =  -1.56091901903910E-09  2.80745314947408E-03
 cg2d: Sum(rhs),rhsMax =  -1.60989438446890E-09  2.83416697556861E-03
 cg2d: Sum(rhs),rhsMax =  -1.66496309794706E-09  2.86085748608391E-03
 cg2d: Sum(rhs),rhsMax =  -1.72070378084976E-09  2.88752256985196E-03
 cg2d: Sum(rhs),rhsMax =  -1.77813914981062E-09  2.91416011352819E-03
 cg2d: Sum(rhs),rhsMax =  -1.83690604393938E-09  2.94076800217651E-03
(PID.TID 0000.0001)      cg2d_init_res =   1.63174154876448E-01
(PID.TID 0000.0001)      cg2d_iters(min,last) =      -1     575
(PID.TID 0000.0001)      cg2d_last_res =   9.10854699880986E-08
(PID.TID 0000.0001) // =======================================================
(PID.TID 0000.0001) // Begin MONITOR dynamic field statistics
(PID.TID 0000.0001) // =======================================================
(PID.TID 0000.0001) %MON time_tsnumber                =                   112
(PID.TID 0000.0001) %MON time_secondsf                =   6.0480000000000E+05
(PID.TID 0000.0001) %MON dynstat_eta_max              =   1.3597342908261E-02
(PID.TID 0000.0001) %MON dynstat_eta_min              =  -9.6815851650143E-03
(PID.TID 0000.0001) %MON dynstat_eta_mean             =   5.4358302102589E-13
(PID.TID 0000.0001) %MON dynstat_eta_sd               =   6.3220530957272E-03
(PID.TID 0000.0001) %MON dynstat_eta_del2             =   5.4101934112116E-08
(PID.TID 0000.0001) %MON dynstat_uvel_max             =   7.8192976167526E-03
(PID.TID 0000.0001) %MON dynstat_uvel_min             =  -5.1518330951454E-03
(PID.TID 0000.0001) %MON dynstat_uvel_mean            =  -4.8798342878729E-07
(PID.TID 0000.0001) %MON dynstat_uvel_sd              =   3.1485408683050E-03
(PID.TID 0000.0001) %MON dynstat_uvel_del2            =   1.8280641244064E-07
(PID.TID 0000.0001) %MON dynstat_vvel_max             =   1.7249184696968E-02
(PID.TID 0000.0001) %MON dynstat_vvel_min             =  -3.6807730892594E-03
(PID.TID 0000.0001) %MON dynstat_vvel_mean            =   1.6068376958598E-07
(PID.TID 0000.0001) %MON dynstat_vvel_sd              =   3.8194696212459E-03
(PID.TID 0000.0001) %MON dynstat_vvel_del2            =   5.1588019767672E-07
(PID.TID 0000.0001) %MON dynstat_wvel_max             =   2.7580796024995E-08
(PID.TID 0000.0001) %MON dynstat_wvel_min             =  -9.8732549231499E-09
(PID.TID 0000.0001) %MON dynstat_wvel_mean            =  -7.0284844605153E-22
(PID.TID 0000.0001) %MON dynstat_wvel_sd              =   1.0199503493388E-08
(PID.TID 0000.0001) %MON dynstat_wvel_del2            =   1.1555095576282E-13
(PID.TID 0000.0001) %MON dynstat_theta_max            =   2.0000000000000E+01
(PID.TID 0000.0001) %MON dynstat_theta_min            =   2.0000000000000E+01
(PID.TID 0000.0001) %MON dynstat_theta_mean           =   1.9999999999999E+01
(PID.TID 0000.0001) %MON dynstat_theta_sd             =   1.1972645097557E-12
(PID.TID 0000.0001) %MON dynstat_theta_del2           =   0.0000000000000E+00
(PID.TID 0000.0001) %MON dynstat_salt_max             =   3.0000000000000E+01
(PID.TID 0000.0001) %MON dynstat_salt_min             =   3.0000000000000E+01
(PID.TID 0000.0001) %MON dynstat_salt_mean            =   2.9999999999998E+01
(PID.TID 0000.0001) %MON dynstat_salt_sd              =   2.1529444893531E-12
(PID.TID 0000.0001) %MON dynstat_salt_del2            =   0.0000000000000E+00
(PID.TID 0000.0001) %MON trAdv_CFL_u_max              =   8.3581882431197E-03
(PID.TID 0000.0001) %MON trAdv_CFL_v_max              =   1.8420018430165E-02
(PID.TID 0000.0001) %MON trAdv_CFL_w_max              =   3.1442683157991E-08
(PID.TID 0000.0001) %MON advcfl_uvel_max              =   8.4448414260929E-03
(PID.TID 0000.0001) %MON advcfl_vvel_max              =   1.8629119472725E-02
(PID.TID 0000.0001) %MON advcfl_wvel_max              =   5.9574519413989E-08
(PID.TID 0000.0001) %MON advcfl_W_hf_max              =   0.0000000000000E+00
(PID.TID 0000.0001) %MON pe_b_mean                    =   4.0893101899158E-08
(PID.TID 0000.0001) %MON ke_max                       =   1.4876280259751E-04
(PID.TID 0000.0001) %MON ke_mean                      =   1.2195683381728E-05
(PID.TID 0000.0001) %MON ke_vol                       =   7.2529629296391E+15
(PID.TID 0000.0001) %MON vort_r_min                   =  -1.0670706144991E-07
(PID.TID 0000.0001) %MON vort_r_max                   =   1.1270817087315E-06
(PID.TID 0000.0001) %MON vort_a_mean                  =   8.2300000000000E-05
(PID.TID 0000.0001) %MON vort_a_sd                    =   7.1302382795156E-06
(PID.TID 0000.0001) %MON vort_p_mean                  =   8.6919888360246E-05
(PID.TID 0000.0001) %MON vort_p_sd                    =   1.7863639314422E-05
(PID.TID 0000.0001) %MON surfExpan_theta_mean         =  -1.4168107789792E-20
(PID.TID 0000.0001) %MON surfExpan_salt_mean          =  -2.0975740294817E-20
(PID.TID 0000.0001) // =======================================================
(PID.TID 0000.0001) // End MONITOR dynamic field statistics
(PID.TID 0000.0001) // =======================================================
 cg2d: Sum(rhs),rhsMax =  -1.90039601416503E-09  2.96734411989321E-03
 cg2d: Sum(rhs),rhsMax =  -1.97998225454077E-09  2.99392920138625E-03
 cg2d: Sum(rhs),rhsMax =  -2.06859510076818E-09  3.02051324139646E-03
 cg2d: Sum(rhs),rhsMax =  -2.16239899597515E-09  3.04706135220221E-03
 cg2d: Sum(rhs),rhsMax =  -2.25214986937505E-09  3.07357143360818E-03
 cg2d: Sum(rhs),rhsMax =  -2.35316669969232E-09  3.10004138724002E-03
 cg2d: Sum(rhs),rhsMax =  -2.44917382555276E-09  3.12646911683023E-03
 cg2d: Sum(rhs),rhsMax =  -2.55245861599529E-09  3.15285252882160E-03
 cg2d: Sum(rhs),rhsMax =  -2.64753747397650E-09  3.17922700901495E-03
 cg2d: Sum(rhs),rhsMax =  -2.64535149341327E-09  3.20560387975910E-03
 cg2d: Sum(rhs),rhsMax =  -2.80204550534568E-09  3.23193247738099E-03
 cg2d: Sum(rhs),rhsMax =  -2.96205809532935E-09  3.25821071789675E-03
 cg2d: Sum(rhs),rhsMax =  -3.12050383102780E-09  3.28443655520276E-03
 cg2d: Sum(rhs),rhsMax =  -3.29509766694436E-09  3.31060793036595E-03
 cg2d: Sum(rhs),rhsMax =  -3.48069904149151E-09  3.33672279490686E-03
 cg2d: Sum(rhs),rhsMax =  -3.67668230930041E-09  3.36284634929890E-03
(PID.TID 0000.0001)      cg2d_init_res =   1.43276476300504E-01
(PID.TID 0000.0001)      cg2d_iters(min,last) =      -1     574
(PID.TID 0000.0001)      cg2d_last_res =   9.51895363953891E-08
(PID.TID 0000.0001) // =======================================================
(PID.TID 0000.0001) // Begin MONITOR dynamic field statistics
(PID.TID 0000.0001) // =======================================================
(PID.TID 0000.0001) %MON time_tsnumber                =                   128
(PID.TID 0000.0001) %MON time_secondsf                =   6.9120000000000E+05
(PID.TID 0000.0001) %MON dynstat_eta_max              =   1.5484000431538E-02
(PID.TID 0000.0001) %MON dynstat_eta_min              =  -1.0313264931896E-02
(PID.TID 0000.0001) %MON dynstat_eta_mean             =   1.2702749148814E-12
(PID.TID 0000.0001) %MON dynstat_eta_sd               =   6.9884507949988E-03
(PID.TID 0000.0001) %MON dynstat_eta_del2             =   6.3376256266678E-08
(PID.TID 0000.0001) %MON dynstat_uvel_max             =   9.1020209596074E-03
(PID.TID 0000.0001) %MON dynstat_uvel_min             =  -5.4111381919770E-03
(PID.TID 0000.0001) %MON dynstat_uvel_mean            =  -4.6877993740854E-07
(PID.TID 0000.0001) %MON dynstat_uvel_sd              =   3.4351818503728E-03
(PID.TID 0000.0001) %MON dynstat_uvel_del2            =   1.8733169925979E-07
(PID.TID 0000.0001) %MON dynstat_vvel_max             =   2.0363827207313E-02
(PID.TID 0000.0001) %MON dynstat_vvel_min             =  -4.0546281271565E-03
(PID.TID 0000.0001) %MON dynstat_vvel_mean            =   2.0285340007510E-07
(PID.TID 0000.0001) %MON dynstat_vvel_sd              =   4.3253311789220E-03
(PID.TID 0000.0001) %MON dynstat_vvel_del2            =   5.8077542788794E-07
(PID.TID 0000.0001) %MON dynstat_wvel_max             =   2.8143980740570E-08
(PID.TID 0000.0001) %MON dynstat_wvel_min             =  -9.5680675265612E-09
(PID.TID 0000.0001) %MON dynstat_wvel_mean            =  -1.0065906404241E-21
(PID.TID 0000.0001) %MON dynstat_wvel_sd              =   9.8151772383850E-09
(PID.TID 0000.0001) %MON dynstat_wvel_del2            =   1.1859599138402E-13
(PID.TID 0000.0001) %MON dynstat_theta_max            =   2.0000000000000E+01
(PID.TID 0000.0001) %MON dynstat_theta_min            =   2.0000000000000E+01
(PID.TID 0000.0001) %MON dynstat_theta_mean           =   1.9999999999999E+01
(PID.TID 0000.0001) %MON dynstat_theta_sd             =   1.1972645097557E-12
(PID.TID 0000.0001) %MON dynstat_theta_del2           =   0.0000000000000E+00
(PID.TID 0000.0001) %MON dynstat_salt_max             =   3.0000000000000E+01
(PID.TID 0000.0001) %MON dynstat_salt_min             =   3.0000000000000E+01
(PID.TID 0000.0001) %MON dynstat_salt_mean            =   2.9999999999998E+01
(PID.TID 0000.0001) %MON dynstat_salt_sd              =   2.1529444893531E-12
(PID.TID 0000.0001) %MON dynstat_salt_del2            =   0.0000000000000E+00
(PID.TID 0000.0001) %MON trAdv_CFL_u_max              =   9.7417537962914E-03
(PID.TID 0000.0001) %MON trAdv_CFL_v_max              =   2.1782212379667E-02
(PID.TID 0000.0001) %MON trAdv_CFL_w_max              =   3.1905766970198E-08
(PID.TID 0000.0001) %MON advcfl_uvel_max              =   9.8301826363760E-03
(PID.TID 0000.0001) %MON advcfl_vvel_max              =   2.1992933383898E-02
(PID.TID 0000.0001) %MON advcfl_wvel_max              =   6.0790998399630E-08
(PID.TID 0000.0001) %MON advcfl_W_hf_max              =   0.0000000000000E+00
(PID.TID 0000.0001) %MON pe_b_mean                    =   4.9968418036306E-08
(PID.TID 0000.0001) %MON ke_max                       =   2.0732841792997E-04
(PID.TID 0000.0001) %MON ke_mean                      =   1.5185815976874E-05
(PID.TID 0000.0001) %MON ke_vol                       =   7.2529629296391E+15
(PID.TID 0000.0001) %MON vort_r_min                   =  -1.3528098873046E-07
(PID.TID 0000.0001) %MON vort_r_max                   =   1.3018954824585E-06
(PID.TID 0000.0001) %MON vort_a_mean                  =   8.2300000000000E-05
(PID.TID 0000.0001) %MON vort_a_sd                    =   7.1303895704005E-06
(PID.TID 0000.0001) %MON vort_p_mean                  =   8.6919888360247E-05
(PID.TID 0000.0001) %MON vort_p_sd                    =   1.7866748403721E-05
(PID.TID 0000.0001) %MON surfExpan_theta_mean         =  -1.9900905271356E-20
(PID.TID 0000.0001) %MON surfExpan_salt_mean          =  -2.9857256787833E-20
(PID.TID 0000.0001) // =======================================================
(PID.TID 0000.0001) // End MONITOR dynamic field statistics
(PID.TID 0000.0001) // =======================================================
 cg2d: Sum(rhs),rhsMax =  -3.89015034074625E-09  3.38894168077970E-03
 cg2d: Sum(rhs),rhsMax =  -4.12339276958940E-09  3.41497678895523E-03
 cg2d: Sum(rhs),rhsMax =  -4.38600882696205E-09  3.44094966435186E-03
 cg2d: Sum(rhs),rhsMax =  -4.67485488167552E-09  3.46685830534327E-03
 cg2d: Sum(rhs),rhsMax =  -5.00226984834207E-09  3.49270071858111E-03
 cg2d: Sum(rhs),rhsMax =  -5.37565683980668E-09  3.51850211075287E-03
 cg2d: Sum(rhs),rhsMax =  -5.81355558137986E-09  3.54431515345409E-03
 cg2d: Sum(rhs),rhsMax =  -6.33643680233997E-09  3.57005851655809E-03
 cg2d: Sum(rhs),rhsMax =  -6.98363888593234E-09  3.59573025387251E-03
 cg2d: Sum(rhs),rhsMax =  -7.82751878591892E-09  3.62132842921701E-03
 cg2d: Sum(rhs),rhsMax =  -9.02252864434794E-09  3.64685111681556E-03
 cg2d: Sum(rhs),rhsMax =  -1.10197834884973E-08  3.67230346106496E-03
 cg2d: Sum(rhs),rhsMax =  -1.66408682319985E-08  3.69778832686414E-03
 cg2d: Sum(rhs),rhsMax =  -8.77426518594571E-09  3.72319454277838E-03
 cg2d: Sum(rhs),rhsMax =  -6.36715999022264E-09  3.74852023687411E-03
 cg2d: Sum(rhs),rhsMax =  -4.65080007144847E-09  3.77376355008740E-03
(PID.TID 0000.0001)      cg2d_init_res =   1.26618403027655E-01
(PID.TID 0000.0001)      cg2d_iters(min,last) =      -1     573
(PID.TID 0000.0001)      cg2d_last_res =   9.93682988897271E-08
(PID.TID 0000.0001) // =======================================================
(PID.TID 0000.0001) // Begin MONITOR dynamic field statistics
(PID.TID 0000.0001) // =======================================================
(PID.TID 0000.0001) %MON time_tsnumber                =                   144
(PID.TID 0000.0001) %MON time_secondsf                =   7.7760000000000E+05
(PID.TID 0000.0001) %MON dynstat_eta_max              =   1.7319905454759E-02
(PID.TID 0000.0001) %MON dynstat_eta_min              =  -1.0769716591233E-02
(PID.TID 0000.0001) %MON dynstat_eta_mean             =   1.2403444496226E-12
(PID.TID 0000.0001) %MON dynstat_eta_sd               =   7.5736202585427E-03
(PID.TID 0000.0001) %MON dynstat_eta_del2             =   7.2791622991990E-08
(PID.TID 0000.0001) %MON dynstat_uvel_max             =   1.0408765712608E-02
(PID.TID 0000.0001) %MON dynstat_uvel_min             =  -5.5594207310554E-03
(PID.TID 0000.0001) %MON dynstat_uvel_mean            =  -4.2904698447566E-07
(PID.TID 0000.0001) %MON dynstat_uvel_sd              =   3.6849944159357E-03
(PID.TID 0000.0001) %MON dynstat_uvel_del2            =   1.9200545332077E-07
(PID.TID 0000.0001) %MON dynstat_vvel_max             =   2.3477454736403E-02
(PID.TID 0000.0001) %MON dynstat_vvel_min             =  -4.4685731429293E-03
(PID.TID 0000.0001) %MON dynstat_vvel_mean            =   2.3803662622802E-07
(PID.TID 0000.0001) %MON dynstat_vvel_sd              =   4.8038089511780E-03
(PID.TID 0000.0001) %MON dynstat_vvel_del2            =   6.4236552551220E-07
(PID.TID 0000.0001) %MON dynstat_wvel_max             =   2.8498380957171E-08
(PID.TID 0000.0001) %MON dynstat_wvel_min             =  -9.7802397015039E-09
(PID.TID 0000.0001) %MON dynstat_wvel_mean            =  -1.1615509476696E-22
(PID.TID 0000.0001) %MON dynstat_wvel_sd              =   9.4293982525965E-09
(PID.TID 0000.0001) %MON dynstat_wvel_del2            =   1.2008899527469E-13
(PID.TID 0000.0001) %MON dynstat_theta_max            =   2.0000000000000E+01
(PID.TID 0000.0001) %MON dynstat_theta_min            =   2.0000000000000E+01
(PID.TID 0000.0001) %MON dynstat_theta_mean           =   1.9999999999999E+01
(PID.TID 0000.0001) %MON dynstat_theta_sd             =   1.1972645097557E-12
(PID.TID 0000.0001) %MON dynstat_theta_del2           =   0.0000000000000E+00
(PID.TID 0000.0001) %MON dynstat_salt_max             =   3.0000000000000E+01
(PID.TID 0000.0001) %MON dynstat_salt_min             =   3.0000000000000E+01
(PID.TID 0000.0001) %MON dynstat_salt_mean            =   2.9999999999998E+01
(PID.TID 0000.0001) %MON dynstat_salt_sd              =   2.1529444893531E-12
(PID.TID 0000.0001) %MON dynstat_salt_del2            =   0.0000000000000E+00
(PID.TID 0000.0001) %MON trAdv_CFL_u_max              =   1.1151060886109E-02
(PID.TID 0000.0001) %MON trAdv_CFL_v_max              =   2.5146409356965E-02
(PID.TID 0000.0001) %MON trAdv_CFL_w_max              =   3.2154956793144E-08
(PID.TID 0000.0001) %MON advcfl_uvel_max              =   1.1241466969616E-02
(PID.TID 0000.0001) %MON advcfl_vvel_max              =   2.5355651115315E-02
(PID.TID 0000.0001) %MON advcfl_wvel_max              =   6.1556502867490E-08
(PID.TID 0000.0001) %MON advcfl_W_hf_max              =   0.0000000000000E+00
(PID.TID 0000.0001) %MON pe_b_mean                    =   5.8686853908433E-08
(PID.TID 0000.0001) %MON ke_max                       =   2.7557048996078E-04
(PID.TID 0000.0001) %MON ke_mean                      =   1.8245381489700E-05
(PID.TID 0000.0001) %MON ke_vol                       =   7.2529629296391E+15
(PID.TID 0000.0001) %MON vort_r_min                   =  -1.6654552540024E-07
(PID.TID 0000.0001) %MON vort_r_max                   =   1.4723395554359E-06
(PID.TID 0000.0001) %MON vort_a_mean                  =   8.2300000000000E-05
(PID.TID 0000.0001) %MON vort_a_sd                    =   7.1305608245828E-06
(PID.TID 0000.0001) %MON vort_p_mean                  =   8.6919888360246E-05
(PID.TID 0000.0001) %MON vort_p_sd                    =   1.7869687523970E-05
(PID.TID 0000.0001) %MON surfExpan_theta_mean         =  -2.1825999853965E-21
(PID.TID 0000.0001) %MON surfExpan_salt_mean          =  -3.2324387362990E-21
(PID.TID 0000.0001) // =======================================================
(PID.TID 0000.0001) // End MONITOR dynamic field statistics
(PID.TID 0000.0001) // =======================================================
 cg2d: Sum(rhs),rhsMax =  -3.38858655718477E-09  3.79892263251647E-03
 cg2d: Sum(rhs),rhsMax =  -2.24802454776296E-09  3.82400472155448E-03
 cg2d: Sum(rhs),rhsMax =  -1.65329110124457E-09  3.84911900427202E-03
 cg2d: Sum(rhs),rhsMax =  -1.07347513517153E-09  3.87414620766209E-03
 cg2d: Sum(rhs),rhsMax =  -5.50928653392235E-10  3.89908454429361E-03
 cg2d: Sum(rhs),rhsMax =  -9.37722885452352E-11  3.92393223936276E-03
 cg2d: Sum(rhs),rhsMax =   3.23324669121439E-10  3.94868753235834E-03
 cg2d: Sum(rhs),rhsMax =   7.03203335838953E-10  3.97338295253631E-03
 cg2d: Sum(rhs),rhsMax =   1.04862361849367E-09  3.99808799489151E-03
 cg2d: Sum(rhs),rhsMax =   1.36951714552191E-09  4.02269811751772E-03
 cg2d: Sum(rhs),rhsMax =   1.65970815563243E-09  4.04721162381486E-03
 cg2d: Sum(rhs),rhsMax =   1.93670550430181E-09  4.07162683194641E-03
 cg2d: Sum(rhs),rhsMax =   2.18962743769868E-09  4.09594207577998E-03
 cg2d: Sum(rhs),rhsMax =   2.42953820256409E-09  4.12023946451293E-03
 cg2d: Sum(rhs),rhsMax =   2.65413382244395E-09  4.14450057380741E-03
 cg2d: Sum(rhs),rhsMax =   2.86382162428822E-09  4.16865954651414E-03
(PID.TID 0000.0001)      cg2d_init_res =   1.12420635231081E-01
(PID.TID 0000.0001)      cg2d_iters(min,last) =      -1     572
(PID.TID 0000.0001)      cg2d_last_res =   9.99241644235504E-08
(PID.TID 0000.0001) // =======================================================
(PID.TID 0000.0001) // Begin MONITOR dynamic field statistics
(PID.TID 0000.0001) // =======================================================
(PID.TID 0000.0001) %MON time_tsnumber                =                   160
(PID.TID 0000.0001) %MON time_secondsf                =   8.6400000000000E+05
(PID.TID 0000.0001) %MON dynstat_eta_max              =   1.9093286869656E-02
(PID.TID 0000.0001) %MON dynstat_eta_min              =  -1.1066353767661E-02
(PID.TID 0000.0001) %MON dynstat_eta_mean             =  -1.2521644638995E-12
(PID.TID 0000.0001) %MON dynstat_eta_sd               =   8.0753699573619E-03
(PID.TID 0000.0001) %MON dynstat_eta_del2             =   8.2211305725808E-08
(PID.TID 0000.0001) %MON dynstat_uvel_max             =   1.1732975799445E-02
(PID.TID 0000.0001) %MON dynstat_uvel_min             =  -5.6282771141182E-03
(PID.TID 0000.0001) %MON dynstat_uvel_mean            =  -3.7279673955730E-07
(PID.TID 0000.0001) %MON dynstat_uvel_sd              =   3.9044370694541E-03
(PID.TID 0000.0001) %MON dynstat_uvel_del2            =   1.9733644606610E-07
(PID.TID 0000.0001) %MON dynstat_vvel_max             =   2.6542546465007E-02
(PID.TID 0000.0001) %MON dynstat_vvel_min             =  -4.8763073491205E-03
(PID.TID 0000.0001) %MON dynstat_vvel_mean            =   2.6395667583572E-07
(PID.TID 0000.0001) %MON dynstat_vvel_sd              =   5.2484520321202E-03
(PID.TID 0000.0001) %MON dynstat_vvel_del2            =   6.9953664169386E-07
(PID.TID 0000.0001) %MON dynstat_wvel_max             =   2.8618337881635E-08
(PID.TID 0000.0001) %MON dynstat_wvel_min             =  -1.0898170293367E-08
(PID.TID 0000.0001) %MON dynstat_wvel_mean            =  -1.3762844186768E-21
(PID.TID 0000.0001) %MON dynstat_wvel_sd              =   9.0565341021393E-09
(PID.TID 0000.0001) %MON dynstat_wvel_del2            =   1.2013074671872E-13
(PID.TID 0000.0001) %MON dynstat_theta_max            =   2.0000000000000E+01
(PID.TID 0000.0001) %MON dynstat_theta_min            =   2.0000000000000E+01
(PID.TID 0000.0001) %MON dynstat_theta_mean           =   1.9999999999999E+01
(PID.TID 0000.0001) %MON dynstat_theta_sd             =   1.1972645097557E-12
(PID.TID 0000.0001) %MON dynstat_theta_del2           =   0.0000000000000E+00
(PID.TID 0000.0001) %MON dynstat_salt_max             =   3.0000000000000E+01
(PID.TID 0000.0001) %MON dynstat_salt_min             =   3.0000000000000E+01
(PID.TID 0000.0001) %MON dynstat_salt_mean            =   2.9999999999998E+01
(PID.TID 0000.0001) %MON dynstat_salt_sd              =   2.1529444893531E-12
(PID.TID 0000.0001) %MON dynstat_salt_del2            =   0.0000000000000E+00
(PID.TID 0000.0001) %MON trAdv_CFL_u_max              =   1.2580203887394E-02
(PID.TID 0000.0001) %MON trAdv_CFL_v_max              =   2.8461304117562E-02
(PID.TID 0000.0001) %MON trAdv_CFL_w_max              =   3.2156528438317E-08
(PID.TID 0000.0001) %MON advcfl_uvel_max              =   1.2671613863400E-02
(PID.TID 0000.0001) %MON advcfl_vvel_max              =   2.8665950182208E-02
(PID.TID 0000.0001) %MON advcfl_wvel_max              =   6.1815609824331E-08
(PID.TID 0000.0001) %MON advcfl_W_hf_max              =   0.0000000000000E+00
(PID.TID 0000.0001) %MON pe_b_mean                    =   6.6720398641876E-08
(PID.TID 0000.0001) %MON ke_max                       =   3.5221957461498E-04
(PID.TID 0000.0001) %MON ke_mean                      =   2.1299129872821E-05
(PID.TID 0000.0001) %MON ke_vol                       =   7.2529629296391E+15
(PID.TID 0000.0001) %MON vort_r_min                   =  -2.0076149517519E-07
(PID.TID 0000.0001) %MON vort_r_max                   =   1.6360987759118E-06
(PID.TID 0000.0001) %MON vort_a_mean                  =   8.2300000000000E-05
(PID.TID 0000.0001) %MON vort_a_sd                    =   7.1307488425784E-06
(PID.TID 0000.0001) %MON vort_p_mean                  =   8.6919888360247E-05
(PID.TID 0000.0001) %MON vort_p_sd                    =   1.7872471952273E-05
(PID.TID 0000.0001) %MON surfExpan_theta_mean         =  -2.7855755172848E-20
(PID.TID 0000.0001) %MON surfExpan_salt_mean          =  -4.1735962590258E-20
(PID.TID 0000.0001) // =======================================================
(PID.TID 0000.0001) // End MONITOR dynamic field statistics
(PID.TID 0000.0001) // =======================================================
 cg2d: Sum(rhs),rhsMax =   3.09909018933463E-09  4.19271478239644E-03
 cg2d: Sum(rhs),rhsMax =   3.32484353243734E-09  4.21666470171567E-03
 cg2d: Sum(rhs),rhsMax =   3.53970297170547E-09  4.24050773736411E-03
 cg2d: Sum(rhs),rhsMax =   3.74427125068855E-09  4.26440100029973E-03
 cg2d: Sum(rhs),rhsMax =   3.93649328064849E-09  4.28818760224463E-03
 cg2d: Sum(rhs),rhsMax =   4.12339437594333E-09  4.31186550247277E-03
 cg2d: Sum(rhs),rhsMax =   4.29968820270243E-09  4.33543320542657E-03
 cg2d: Sum(rhs),rhsMax =   4.46785926658255E-09  4.35888923281624E-03
 cg2d: Sum(rhs),rhsMax =   4.63084401033931E-09  4.38231987582172E-03
 cg2d: Sum(rhs),rhsMax =   4.78248297561268E-09  4.40571879769045E-03
 cg2d: Sum(rhs),rhsMax =   4.93104851742587E-09  4.42900453075011E-03
 cg2d: Sum(rhs),rhsMax =   5.07367338420384E-09  4.45217566852207E-03
 cg2d: Sum(rhs),rhsMax =   5.20643943929811E-09  4.47523082236651E-03
 cg2d: Sum(rhs),rhsMax =   5.35882400606869E-09  4.49819072785044E-03
 cg2d: Sum(rhs),rhsMax =   5.50439627905464E-09  4.52118919756662E-03
 cg2d: Sum(rhs),rhsMax =   5.66752493894040E-09  4.54407047542544E-03
(PID.TID 0000.0001)      cg2d_init_res =   1.00220716795042E-01
(PID.TID 0000.0001)      cg2d_iters(min,last) =      -1     570
(PID.TID 0000.0001)      cg2d_last_res =   9.59409427824577E-08
(PID.TID 0000.0001) // =======================================================
(PID.TID 0000.0001) // Begin MONITOR dynamic field statistics
(PID.TID 0000.0001) // =======================================================
(PID.TID 0000.0001) %MON time_tsnumber                =                   176
(PID.TID 0000.0001) %MON time_secondsf                =   9.5040000000000E+05
(PID.TID 0000.0001) %MON dynstat_eta_max              =   2.0788474933050E-02
(PID.TID 0000.0001) %MON dynstat_eta_min              =  -1.1224415735518E-02
(PID.TID 0000.0001) %MON dynstat_eta_mean             =  -2.5629550333544E-12
(PID.TID 0000.0001) %MON dynstat_eta_sd               =   8.4939184738390E-03
(PID.TID 0000.0001) %MON dynstat_eta_del2             =   9.1498835385073E-08
(PID.TID 0000.0001) %MON dynstat_uvel_max             =   1.3068812651807E-02
(PID.TID 0000.0001) %MON dynstat_uvel_min             =  -5.6943089109367E-03
(PID.TID 0000.0001) %MON dynstat_uvel_mean            =  -3.0488322188350E-07
(PID.TID 0000.0001) %MON dynstat_uvel_sd              =   4.1004468441281E-03
(PID.TID 0000.0001) %MON dynstat_uvel_del2            =   2.0342934008231E-07
(PID.TID 0000.0001) %MON dynstat_vvel_max             =   2.9519650067639E-02
(PID.TID 0000.0001) %MON dynstat_vvel_min             =  -5.2560401860774E-03
(PID.TID 0000.0001) %MON dynstat_vvel_mean            =   2.7904931121884E-07
(PID.TID 0000.0001) %MON dynstat_vvel_sd              =   5.6541476907143E-03
(PID.TID 0000.0001) %MON dynstat_vvel_del2            =   7.5152345788214E-07
(PID.TID 0000.0001) %MON dynstat_wvel_max             =   2.8481541739311E-08
(PID.TID 0000.0001) %MON dynstat_wvel_min             =  -1.2536640728649E-08
(PID.TID 0000.0001) %MON dynstat_wvel_mean            =  -1.3808075452127E-21
(PID.TID 0000.0001) %MON dynstat_wvel_sd              =   8.7063160689809E-09
(PID.TID 0000.0001) %MON dynstat_wvel_del2            =   1.1874469587812E-13
(PID.TID 0000.0001) %MON dynstat_theta_max            =   2.0000000000000E+01
(PID.TID 0000.0001) %MON dynstat_theta_min            =   2.0000000000000E+01
(PID.TID 0000.0001) %MON dynstat_theta_mean           =   1.9999999999999E+01
(PID.TID 0000.0001) %MON dynstat_theta_sd             =   1.1972645097557E-12
(PID.TID 0000.0001) %MON dynstat_theta_del2           =   0.0000000000000E+00
(PID.TID 0000.0001) %MON dynstat_salt_max             =   3.0000000000000E+01
(PID.TID 0000.0001) %MON dynstat_salt_min             =   3.0000000000000E+01
(PID.TID 0000.0001) %MON dynstat_salt_mean            =   2.9999999999998E+01
(PID.TID 0000.0001) %MON dynstat_salt_sd              =   2.1529444893531E-12
(PID.TID 0000.0001) %MON dynstat_salt_del2            =   0.0000000000000E+00
(PID.TID 0000.0001) %MON trAdv_CFL_u_max              =   1.4022033622469E-02
(PID.TID 0000.0001) %MON trAdv_CFL_v_max              =   3.1683779139727E-02
(PID.TID 0000.0001) %MON trAdv_CFL_w_max              =   3.1892147584192E-08
(PID.TID 0000.0001) %MON advcfl_uvel_max              =   1.4114317663951E-02
(PID.TID 0000.0001) %MON advcfl_vvel_max              =   3.1881222073051E-02
(PID.TID 0000.0001) %MON advcfl_wvel_max              =   6.1520130156912E-08
(PID.TID 0000.0001) %MON advcfl_W_hf_max              =   0.0000000000000E+00
(PID.TID 0000.0001) %MON pe_b_mean                    =   7.3815905788220E-08
(PID.TID 0000.0001) %MON ke_max                       =   4.3566949771823E-04
(PID.TID 0000.0001) %MON ke_mean                      =   2.4281729762300E-05
(PID.TID 0000.0001) %MON ke_vol                       =   7.2529629296391E+15
(PID.TID 0000.0001) %MON vort_r_min                   =  -2.3703961265002E-07
(PID.TID 0000.0001) %MON vort_r_max                   =   1.7915231616798E-06
(PID.TID 0000.0001) %MON vort_a_mean                  =   8.2300000000000E-05
(PID.TID 0000.0001) %MON vort_a_sd                    =   7.1309494689279E-06
(PID.TID 0000.0001) %MON vort_p_mean                  =   8.6919888360246E-05
(PID.TID 0000.0001) %MON vort_p_sd                    =   1.7875106326920E-05
(PID.TID 0000.0001) %MON surfExpan_theta_mean         =  -2.7782664793248E-20
(PID.TID 0000.0001) %MON surfExpan_salt_mean          =  -4.1731656871060E-20
(PID.TID 0000.0001) // =======================================================
(PID.TID 0000.0001) // End MONITOR dynamic field statistics
(PID.TID 0000.0001) // =======================================================
 cg2d: Sum(rhs),rhsMax =   5.82348548550105E-09  4.56683324485983E-03
 cg2d: Sum(rhs),rhsMax =   5.96802360308679E-09  4.58947620821203E-03
 cg2d: Sum(rhs),rhsMax =   6.12899979379744E-09  4.61199808439283E-03
 cg2d: Sum(rhs),rhsMax =   6.31139771695155E-09  4.63454695623020E-03
 cg2d: Sum(rhs),rhsMax =   6.48196906219423E-09  4.65701401320670E-03
 cg2d: Sum(rhs),rhsMax =   6.68217559063322E-09  4.67935913266452E-03
 cg2d: Sum(rhs),rhsMax =   6.85830463253989E-09  4.70158111396663E-03
 cg2d: Sum(rhs),rhsMax =   7.04716158345109E-09  4.72367876406647E-03
 cg2d: Sum(rhs),rhsMax =   7.24125990420044E-09  4.74575136618823E-03
 cg2d: Sum(rhs),rhsMax =   7.38576296649418E-09  4.76779692009835E-03
 cg2d: Sum(rhs),rhsMax =   7.53640016712409E-09  4.78971759180136E-03
 cg2d: Sum(rhs),rhsMax =   7.68482270527282E-09  4.81151226709826E-03
 cg2d: Sum(rhs),rhsMax =   7.83257096334533E-09  4.83317985016588E-03
 cg2d: Sum(rhs),rhsMax =   7.98066535773190E-09  4.85477313804674E-03
 cg2d: Sum(rhs),rhsMax =   8.10302535139695E-09  4.87639233428143E-03
 cg2d: Sum(rhs),rhsMax =   8.22167045902433E-09  4.89788417792376E-03
(PID.TID 0000.0001)      cg2d_init_res =   8.97334391516660E-02
(PID.TID 0000.0001)      cg2d_iters(min,last) =      -1     571
(PID.TID 0000.0001)      cg2d_last_res =   9.52324037313351E-08
(PID.TID 0000.0001) // =======================================================
(PID.TID 0000.0001) // Begin MONITOR dynamic field statistics
(PID.TID 0000.0001) // =======================================================
(PID.TID 0000.0001) %MON time_tsnumber                =                   192
(PID.TID 0000.0001) %MON time_secondsf                =   1.0368000000000E+06
(PID.TID 0000.0001) %MON dynstat_eta_max              =   2.2395280280690E-02
(PID.TID 0000.0001) %MON dynstat_eta_min              =  -1.1269304179837E-02
(PID.TID 0000.0001) %MON dynstat_eta_mean             =  -3.9540909132629E-12
(PID.TID 0000.0001) %MON dynstat_eta_sd               =   8.8318252110321E-03
(PID.TID 0000.0001) %MON dynstat_eta_del2             =   1.0052858378300E-07
(PID.TID 0000.0001) %MON dynstat_uvel_max             =   1.4405751601619E-02
(PID.TID 0000.0001) %MON dynstat_uvel_min             =  -5.8720646796832E-03
(PID.TID 0000.0001) %MON dynstat_uvel_mean            =  -2.3062555802365E-07
(PID.TID 0000.0001) %MON dynstat_uvel_sd              =   4.2795285217119E-03
(PID.TID 0000.0001) %MON dynstat_uvel_del2            =   2.1007961285803E-07
(PID.TID 0000.0001) %MON dynstat_vvel_max             =   3.2378255816295E-02
(PID.TID 0000.0001) %MON dynstat_vvel_min             =  -5.5943902195625E-03
(PID.TID 0000.0001) %MON dynstat_vvel_mean            =   2.8255176005300E-07
(PID.TID 0000.0001) %MON dynstat_vvel_sd              =   6.0175665518267E-03
(PID.TID 0000.0001) %MON dynstat_vvel_del2            =   7.9790298653084E-07
(PID.TID 0000.0001) %MON dynstat_wvel_max             =   2.8081600989681E-08
(PID.TID 0000.0001) %MON dynstat_wvel_min             =  -1.4354919123580E-08
(PID.TID 0000.0001) %MON dynstat_wvel_mean            =   9.7641758944789E-22
(PID.TID 0000.0001) %MON dynstat_wvel_sd              =   8.3818974694484E-09
(PID.TID 0000.0001) %MON dynstat_wvel_del2            =   1.1655806200384E-13
(PID.TID 0000.0001) %MON dynstat_theta_max            =   2.0000000000000E+01
(PID.TID 0000.0001) %MON dynstat_theta_min            =   2.0000000000000E+01
(PID.TID 0000.0001) %MON dynstat_theta_mean           =   1.9999999999999E+01
(PID.TID 0000.0001) %MON dynstat_theta_sd             =   1.1972645097557E-12
(PID.TID 0000.0001) %MON dynstat_theta_del2           =   0.0000000000000E+00
(PID.TID 0000.0001) %MON dynstat_salt_max             =   3.0000000000000E+01
(PID.TID 0000.0001) %MON dynstat_salt_min             =   3.0000000000000E+01
(PID.TID 0000.0001) %MON dynstat_salt_mean            =   2.9999999999998E+01
(PID.TID 0000.0001) %MON dynstat_salt_sd              =   2.1529444893531E-12
(PID.TID 0000.0001) %MON dynstat_salt_del2            =   0.0000000000000E+00
(PID.TID 0000.0001) %MON trAdv_CFL_u_max              =   1.5465753349842E-02
(PID.TID 0000.0001) %MON trAdv_CFL_v_max              =   3.4780230819547E-02
(PID.TID 0000.0001) %MON trAdv_CFL_w_max              =   3.1352141460427E-08
(PID.TID 0000.0001) %MON advcfl_uvel_max              =   1.5558211729749E-02
(PID.TID 0000.0001) %MON advcfl_vvel_max              =   3.4968516281599E-02
(PID.TID 0000.0001) %MON advcfl_wvel_max              =   6.0656258137710E-08
(PID.TID 0000.0001) %MON advcfl_W_hf_max              =   0.0000000000000E+00
(PID.TID 0000.0001) %MON pe_b_mean                    =   7.9805846349621E-08
(PID.TID 0000.0001) %MON ke_max                       =   5.2416500572855E-04
(PID.TID 0000.0001) %MON ke_mean                      =   2.7140015903943E-05
(PID.TID 0000.0001) %MON ke_vol                       =   7.2529629296391E+15
(PID.TID 0000.0001) %MON vort_r_min                   =  -2.7486751136400E-07
(PID.TID 0000.0001) %MON vort_r_max                   =   1.9374849894126E-06
(PID.TID 0000.0001) %MON vort_a_mean                  =   8.2300000000002E-05
(PID.TID 0000.0001) %MON vort_a_sd                    =   7.1311580210407E-06
(PID.TID 0000.0001) %MON vort_p_mean                  =   8.6919888360249E-05
(PID.TID 0000.0001) %MON vort_p_sd                    =   1.7877589061455E-05
(PID.TID 0000.0001) %MON surfExpan_theta_mean         =   1.9464174398681E-20
(PID.TID 0000.0001) %MON surfExpan_salt_mean          =   2.8971537017892E-20
(PID.TID 0000.0001) // =======================================================
(PID.TID 0000.0001) // End MONITOR dynamic field statistics
(PID.TID 0000.0001) // =======================================================
 cg2d: Sum(rhs),rhsMax =   8.33963294602502E-09  4.91924764527343E-03
 cg2d: Sum(rhs),rhsMax =   8.45847989219828E-09  4.94048173085292E-03
 cg2d: Sum(rhs),rhsMax =   8.57160824957459E-09  4.96159308510751E-03
 cg2d: Sum(rhs),rhsMax =   8.68139258744516E-09  4.98278342664728E-03
 cg2d: Sum(rhs),rhsMax =   8.79200918665890E-09  5.00384441031185E-03
 cg2d: Sum(rhs),rhsMax =   8.90499016886759E-09  5.02477510131864E-03
 cg2d: Sum(rhs),rhsMax =   9.00790157742914E-09  5.04557458480246E-03
 cg2d: Sum(rhs),rhsMax =   9.10976394319363E-09  5.06624196375569E-03
 cg2d: Sum(rhs),rhsMax =   9.23240803252234E-09  5.08696422288357E-03
 cg2d: Sum(rhs),rhsMax =   9.35434762289189E-09  5.10759457604873E-03
 cg2d: Sum(rhs),rhsMax =   9.47063397496728E-09  5.12809317241505E-03
 cg2d: Sum(rhs),rhsMax =   9.58217352339807E-09  5.14845918421448E-03
 cg2d: Sum(rhs),rhsMax =   9.69114500801171E-09  5.16869180218882E-03
 cg2d: Sum(rhs),rhsMax =   9.79850125343296E-09  5.18893666041105E-03
 cg2d: Sum(rhs),rhsMax =   9.89783160640356E-09  5.20913876892762E-03
 cg2d: Sum(rhs),rhsMax =   9.99860793465812E-09  5.22920809241741E-03
(PID.TID 0000.0001)      cg2d_init_res =   8.07700812844887E-02
(PID.TID 0000.0001)      cg2d_iters(min,last) =      -1     570
(PID.TID 0000.0001)      cg2d_last_res =   8.88869542997044E-08
(PID.TID 0000.0001) // =======================================================
(PID.TID 0000.0001) // Begin MONITOR dynamic field statistics
(PID.TID 0000.0001) // =======================================================
(PID.TID 0000.0001) %MON time_tsnumber                =                   208
(PID.TID 0000.0001) %MON time_secondsf                =   1.1232000000000E+06
(PID.TID 0000.0001) %MON dynstat_eta_max              =   2.3900367599094E-02
(PID.TID 0000.0001) %MON dynstat_eta_min              =  -1.1228677463329E-02
(PID.TID 0000.0001) %MON dynstat_eta_mean             =  -5.1036825047993E-12
(PID.TID 0000.0001) %MON dynstat_eta_sd               =   9.0937866462070E-03
(PID.TID 0000.0001) %MON dynstat_eta_del2             =   1.0919351371625E-07
(PID.TID 0000.0001) %MON dynstat_uvel_max             =   1.5739498108532E-02
(PID.TID 0000.0001) %MON dynstat_uvel_min             =  -6.1837721558528E-03
(PID.TID 0000.0001) %MON dynstat_uvel_mean            =  -1.5540999240536E-07
(PID.TID 0000.0001) %MON dynstat_uvel_sd              =   4.4470241147391E-03
(PID.TID 0000.0001) %MON dynstat_uvel_del2            =   2.1692607592101E-07
(PID.TID 0000.0001) %MON dynstat_vvel_max             =   3.5100331633061E-02
(PID.TID 0000.0001) %MON dynstat_vvel_min             =  -5.8862095396416E-03
(PID.TID 0000.0001) %MON dynstat_vvel_mean            =   2.7453022731384E-07
(PID.TID 0000.0001) %MON dynstat_vvel_sd              =   6.3373760356523E-03
(PID.TID 0000.0001) %MON dynstat_vvel_del2            =   8.3856523473170E-07
(PID.TID 0000.0001) %MON dynstat_wvel_max             =   2.7425092346966E-08
(PID.TID 0000.0001) %MON dynstat_wvel_min             =  -1.6153753015678E-08
(PID.TID 0000.0001) %MON dynstat_wvel_mean            =  -8.7066877933828E-22
(PID.TID 0000.0001) %MON dynstat_wvel_sd              =   8.0795997844898E-09
(PID.TID 0000.0001) %MON dynstat_wvel_del2            =   1.1332370594974E-13
(PID.TID 0000.0001) %MON dynstat_theta_max            =   2.0000000000000E+01
(PID.TID 0000.0001) %MON dynstat_theta_min            =   2.0000000000000E+01
(PID.TID 0000.0001) %MON dynstat_theta_mean           =   1.9999999999999E+01
(PID.TID 0000.0001) %MON dynstat_theta_sd             =   1.1972645097557E-12
(PID.TID 0000.0001) %MON dynstat_theta_del2           =   0.0000000000000E+00
(PID.TID 0000.0001) %MON dynstat_salt_max             =   3.0000000000000E+01
(PID.TID 0000.0001) %MON dynstat_salt_min             =   3.0000000000000E+01
(PID.TID 0000.0001) %MON dynstat_salt_mean            =   2.9999999999998E+01
(PID.TID 0000.0001) %MON dynstat_salt_sd              =   2.1529444893531E-12
(PID.TID 0000.0001) %MON dynstat_salt_del2            =   0.0000000000000E+00
(PID.TID 0000.0001) %MON trAdv_CFL_u_max              =   1.6906033600583E-02
(PID.TID 0000.0001) %MON trAdv_CFL_v_max              =   3.7729056644160E-02
(PID.TID 0000.0001) %MON trAdv_CFL_w_max              =   3.0545428479463E-08
(PID.TID 0000.0001) %MON advcfl_uvel_max              =   1.6998657957215E-02
(PID.TID 0000.0001) %MON advcfl_vvel_max              =   3.7908358163706E-02
(PID.TID 0000.0001) %MON advcfl_wvel_max              =   5.9238199469447E-08
(PID.TID 0000.0001) %MON advcfl_W_hf_max              =   0.0000000000000E+00
(PID.TID 0000.0001) %MON pe_b_mean                    =   8.4610312371715E-08
(PID.TID 0000.0001) %MON ke_max                       =   6.1594614558147E-04
(PID.TID 0000.0001) %MON ke_mean                      =   2.9834276615520E-05
(PID.TID 0000.0001) %MON ke_vol                       =   7.2529629296391E+15
(PID.TID 0000.0001) %MON vort_r_min                   =  -3.1378357079800E-07
(PID.TID 0000.0001) %MON vort_r_max                   =   2.0734873359171E-06
(PID.TID 0000.0001) %MON vort_a_mean                  =   8.2300000000000E-05
(PID.TID 0000.0001) %MON vort_a_sd                    =   7.1313697597101E-06
(PID.TID 0000.0001) %MON vort_p_mean                  =   8.6919888360247E-05
(PID.TID 0000.0001) %MON vort_p_sd                    =   1.7879915666236E-05
(PID.TID 0000.0001) %MON surfExpan_theta_mean         =  -1.7666617282268E-20
(PID.TID 0000.0001) %MON surfExpan_salt_mean          =  -2.6360874837556E-20
(PID.TID 0000.0001) // =======================================================
(PID.TID 0000.0001) // End MONITOR dynamic field statistics
(PID.TID 0000.0001) // =======================================================
 cg2d: Sum(rhs),rhsMax =   1.00886464494965E-08  5.24914388816736E-03
 cg2d: Sum(rhs),rhsMax =   1.02005609479983E-08  5.26894542902687E-03
 cg2d: Sum(rhs),rhsMax =   1.03009976278046E-08  5.28871265977122E-03
 cg2d: Sum(rhs),rhsMax =   1.04156805819100E-08  5.30849096199413E-03
 cg2d: Sum(rhs),rhsMax =   1.05215334951503E-08  5.32813586631968E-03
 cg2d: Sum(rhs),rhsMax =   1.06253088445751E-08  5.34764671595338E-03
 cg2d: Sum(rhs),rhsMax =   1.07426623430218E-08  5.36702286498086E-03
 cg2d: Sum(rhs),rhsMax =   1.08540891344266E-08  5.38631038762787E-03
 cg2d: Sum(rhs),rhsMax =   1.09570218453925E-08  5.40567123456137E-03
 cg2d: Sum(rhs),rhsMax =   1.10577495320008E-08  5.42489847698528E-03
 cg2d: Sum(rhs),rhsMax =   1.11581331223298E-08  5.44399153319794E-03
 cg2d: Sum(rhs),rhsMax =   1.12585761546935E-08  5.46294983970446E-03
 cg2d: Sum(rhs),rhsMax =   1.13641608553983E-08  5.48177285007241E-03
 cg2d: Sum(rhs),rhsMax =   1.14722006408496E-08  5.50070612421954E-03
 cg2d: Sum(rhs),rhsMax =   1.15885526036363E-08  5.51952423078924E-03
 cg2d: Sum(rhs),rhsMax =   1.17103627801651E-08  5.53820839470720E-03
(PID.TID 0000.0001)      cg2d_init_res =   7.31851150390010E-02
(PID.TID 0000.0001)      cg2d_iters(min,last) =      -1     568
(PID.TID 0000.0001)      cg2d_last_res =   9.26562084940802E-08
(PID.TID 0000.0001) // =======================================================
(PID.TID 0000.0001) // Begin MONITOR dynamic field statistics
(PID.TID 0000.0001) // =======================================================
(PID.TID 0000.0001) %MON time_tsnumber                =                   224
(PID.TID 0000.0001) %MON time_secondsf                =   1.2096000000000E+06
(PID.TID 0000.0001) %MON dynstat_eta_max              =   2.5298589300125E-02
(PID.TID 0000.0001) %MON dynstat_eta_min              =  -1.1130640027174E-02
(PID.TID 0000.0001) %MON dynstat_eta_mean             =  -6.3279660240548E-12
(PID.TID 0000.0001) %MON dynstat_eta_sd               =   9.2863156997536E-03
(PID.TID 0000.0001) %MON dynstat_eta_del2             =   1.1741027171012E-07
(PID.TID 0000.0001) %MON dynstat_uvel_max             =   1.7064243346950E-02
(PID.TID 0000.0001) %MON dynstat_uvel_min             =  -6.6007279285305E-03
(PID.TID 0000.0001) %MON dynstat_uvel_mean            =  -8.4300818425958E-08
(PID.TID 0000.0001) %MON dynstat_uvel_sd              =   4.6066956058035E-03
(PID.TID 0000.0001) %MON dynstat_uvel_del2            =   2.2360593541741E-07
(PID.TID 0000.0001) %MON dynstat_vvel_max             =   3.7671940205111E-02
(PID.TID 0000.0001) %MON dynstat_vvel_min             =  -6.1309622995819E-03
(PID.TID 0000.0001) %MON dynstat_vvel_mean            =   2.5584495750661E-07
(PID.TID 0000.0001) %MON dynstat_vvel_sd              =   6.6142203933408E-03
(PID.TID 0000.0001) %MON dynstat_vvel_del2            =   8.7366900904029E-07
(PID.TID 0000.0001) %MON dynstat_wvel_max             =   2.6528974488610E-08
(PID.TID 0000.0001) %MON dynstat_wvel_min             =  -1.7804033986176E-08
(PID.TID 0000.0001) %MON dynstat_wvel_mean            =   1.3878960649502E-21
(PID.TID 0000.0001) %MON dynstat_wvel_sd              =   7.7906286591936E-09
(PID.TID 0000.0001) %MON dynstat_wvel_del2            =   1.1015282042800E-13
(PID.TID 0000.0001) %MON dynstat_theta_max            =   2.0000000000000E+01
(PID.TID 0000.0001) %MON dynstat_theta_min            =   2.0000000000000E+01
(PID.TID 0000.0001) %MON dynstat_theta_mean           =   1.9999999999999E+01
(PID.TID 0000.0001) %MON dynstat_theta_sd             =   1.1972645097557E-12
(PID.TID 0000.0001) %MON dynstat_theta_del2           =   0.0000000000000E+00
(PID.TID 0000.0001) %MON dynstat_salt_max             =   3.0000000000000E+01
(PID.TID 0000.0001) %MON dynstat_salt_min             =   3.0000000000000E+01
(PID.TID 0000.0001) %MON dynstat_salt_mean            =   2.9999999999998E+01
(PID.TID 0000.0001) %MON dynstat_salt_sd              =   2.1529444893531E-12
(PID.TID 0000.0001) %MON dynstat_salt_del2            =   0.0000000000000E+00
(PID.TID 0000.0001) %MON trAdv_CFL_u_max              =   1.8337235008625E-02
(PID.TID 0000.0001) %MON trAdv_CFL_v_max              =   4.0517536195774E-02
(PID.TID 0000.0001) %MON trAdv_CFL_w_max              =   2.9493612460117E-08
(PID.TID 0000.0001) %MON advcfl_uvel_max              =   1.8429382814706E-02
(PID.TID 0000.0001) %MON advcfl_vvel_max              =   4.0685695421519E-02
(PID.TID 0000.0001) %MON advcfl_wvel_max              =   5.7302584895398E-08
(PID.TID 0000.0001) %MON advcfl_W_hf_max              =   0.0000000000000E+00
(PID.TID 0000.0001) %MON pe_b_mean                    =   8.8230890954532E-08
(PID.TID 0000.0001) %MON ke_max                       =   7.0956410470452E-04
(PID.TID 0000.0001) %MON ke_mean                      =   3.2338551596109E-05
(PID.TID 0000.0001) %MON ke_vol                       =   7.2529629296391E+15
(PID.TID 0000.0001) %MON vort_r_min                   =  -3.5332796404788E-07
(PID.TID 0000.0001) %MON vort_r_max                   =   2.1996019631484E-06
(PID.TID 0000.0001) %MON vort_a_mean                  =   8.2299999999999E-05
(PID.TID 0000.0001) %MON vort_a_sd                    =   7.1315803293870E-06
(PID.TID 0000.0001) %MON vort_p_mean                  =   8.6919888360246E-05
(PID.TID 0000.0001) %MON vort_p_sd                    =   1.7882081282588E-05
(PID.TID 0000.0001) %MON surfExpan_theta_mean         =   2.7694979116049E-20
(PID.TID 0000.0001) %MON surfExpan_salt_mean          =   4.1529130440420E-20
(PID.TID 0000.0001) // =======================================================
(PID.TID 0000.0001) // End MONITOR dynamic field statistics
(PID.TID 0000.0001) // =======================================================
 cg2d: Sum(rhs),rhsMax =   1.18164668362619E-08  5.55675812675707E-03
 cg2d: Sum(rhs),rhsMax =   1.19294851601282E-08  5.57517295571610E-03
 cg2d: Sum(rhs),rhsMax =   1.20486189046642E-08  5.59362914065701E-03
 cg2d: Sum(rhs),rhsMax =   1.21697376516405E-08  5.61204827153820E-03
 cg2d: Sum(rhs),rhsMax =   1.22943429950451E-08  5.63033405530008E-03
 cg2d: Sum(rhs),rhsMax =   1.24018921313085E-08  5.64848607417232E-03
 cg2d: Sum(rhs),rhsMax =   1.25155442155800E-08  5.66650392727304E-03
 cg2d: Sum(rhs),rhsMax =   1.26299910148397E-08  5.68447650572512E-03
 cg2d: Sum(rhs),rhsMax =   1.27502336084995E-08  5.70250830362501E-03
 cg2d: Sum(rhs),rhsMax =   1.28709139804450E-08  5.72040767857769E-03
 cg2d: Sum(rhs),rhsMax =   1.29912651886110E-08  5.73817427903949E-03
 cg2d: Sum(rhs),rhsMax =   1.31156287358491E-08  5.75580777001477E-03
 cg2d: Sum(rhs),rhsMax =   1.32394924814982E-08  5.77330783105481E-03
 cg2d: Sum(rhs),rhsMax =   1.33598264534518E-08  5.79094633196551E-03
 cg2d: Sum(rhs),rhsMax =   1.35542549406509E-08  5.80847258369287E-03
 cg2d: Sum(rhs),rhsMax =   1.37511423844994E-08  5.82586734239551E-03
(PID.TID 0000.0001)      cg2d_init_res =   6.68402405592705E-02
(PID.TID 0000.0001)      cg2d_iters(min,last) =      -1     569
(PID.TID 0000.0001)      cg2d_last_res =   9.52516600926247E-08
(PID.TID 0000.0001) // =======================================================
(PID.TID 0000.0001) // Begin MONITOR dynamic field statistics
(PID.TID 0000.0001) // =======================================================
(PID.TID 0000.0001) %MON time_tsnumber                =                   240
(PID.TID 0000.0001) %MON time_secondsf                =   1.2960000000000E+06
(PID.TID 0000.0001) %MON dynstat_eta_max              =   2.6577847578078E-02
(PID.TID 0000.0001) %MON dynstat_eta_min              =  -1.1001938678462E-02
(PID.TID 0000.0001) %MON dynstat_eta_mean             =  -7.8141442047438E-12
(PID.TID 0000.0001) %MON dynstat_eta_sd               =   9.4173375731242E-03
(PID.TID 0000.0001) %MON dynstat_eta_del2             =   1.2512178052142E-07
(PID.TID 0000.0001) %MON dynstat_uvel_max             =   1.8376602786654E-02
(PID.TID 0000.0001) %MON dynstat_uvel_min             =  -7.0925130308760E-03
(PID.TID 0000.0001) %MON dynstat_uvel_mean            =  -2.1690598441201E-08
(PID.TID 0000.0001) %MON dynstat_uvel_sd              =   4.7606740659738E-03
(PID.TID 0000.0001) %MON dynstat_uvel_del2            =   2.2986855570012E-07
(PID.TID 0000.0001) %MON dynstat_vvel_max             =   4.0093378663122E-02
(PID.TID 0000.0001) %MON dynstat_vvel_min             =  -6.3294711994715E-03
(PID.TID 0000.0001) %MON dynstat_vvel_mean            =   2.2805753610056E-07
(PID.TID 0000.0001) %MON dynstat_vvel_sd              =   6.8504924565473E-03
(PID.TID 0000.0001) %MON dynstat_vvel_del2            =   9.0358837346215E-07
(PID.TID 0000.0001) %MON dynstat_wvel_max             =   2.5431949264603E-08
(PID.TID 0000.0001) %MON dynstat_wvel_min             =  -1.9210159694776E-08
(PID.TID 0000.0001) %MON dynstat_wvel_mean            =   7.4769079481776E-22
(PID.TID 0000.0001) %MON dynstat_wvel_sd              =   7.5043198713162E-09
(PID.TID 0000.0001) %MON dynstat_wvel_del2            =   1.0705119307262E-13
(PID.TID 0000.0001) %MON dynstat_theta_max            =   2.0000000000000E+01
(PID.TID 0000.0001) %MON dynstat_theta_min            =   2.0000000000000E+01
(PID.TID 0000.0001) %MON dynstat_theta_mean           =   1.9999999999999E+01
(PID.TID 0000.0001) %MON dynstat_theta_sd             =   1.1972645097557E-12
(PID.TID 0000.0001) %MON dynstat_theta_del2           =   0.0000000000000E+00
(PID.TID 0000.0001) %MON dynstat_salt_max             =   3.0000000000000E+01
(PID.TID 0000.0001) %MON dynstat_salt_min             =   3.0000000000000E+01
(PID.TID 0000.0001) %MON dynstat_salt_mean            =   2.9999999999998E+01
(PID.TID 0000.0001) %MON dynstat_salt_sd              =   2.1529444893531E-12
(PID.TID 0000.0001) %MON dynstat_salt_del2            =   0.0000000000000E+00
(PID.TID 0000.0001) %MON trAdv_CFL_u_max              =   1.9755127016173E-02
(PID.TID 0000.0001) %MON trAdv_CFL_v_max              =   4.3141856719119E-02
(PID.TID 0000.0001) %MON trAdv_CFL_w_max              =   2.8224867242806E-08
(PID.TID 0000.0001) %MON advcfl_uvel_max              =   1.9846731009586E-02
(PID.TID 0000.0001) %MON advcfl_vvel_max              =   4.3300848956172E-02
(PID.TID 0000.0001) %MON advcfl_wvel_max              =   5.4933010411542E-08
(PID.TID 0000.0001) %MON advcfl_W_hf_max              =   0.0000000000000E+00
(PID.TID 0000.0001) %MON pe_b_mean                    =   9.0738177813912E-08
(PID.TID 0000.0001) %MON ke_max                       =   8.0363851795281E-04
(PID.TID 0000.0001) %MON ke_mean                      =   3.4639999371702E-05
(PID.TID 0000.0001) %MON ke_vol                       =   7.2529629296391E+15
(PID.TID 0000.0001) %MON vort_r_min                   =  -3.9310442792301E-07
(PID.TID 0000.0001) %MON vort_r_max                   =   2.3162089945154E-06
(PID.TID 0000.0001) %MON vort_a_mean                  =   8.2299999999999E-05
(PID.TID 0000.0001) %MON vort_a_sd                    =   7.1317861089392E-06
(PID.TID 0000.0001) %MON vort_p_mean                  =   8.6919888360246E-05
(PID.TID 0000.0001) %MON vort_p_sd                    =   1.7884082557216E-05
(PID.TID 0000.0001) %MON surfExpan_theta_mean         =   1.4594231479119E-20
(PID.TID 0000.0001) %MON surfExpan_salt_mean          =   2.1782133385793E-20
(PID.TID 0000.0001) // =======================================================
(PID.TID 0000.0001) // End MONITOR dynamic field statistics
(PID.TID 0000.0001) // =======================================================
 cg2d: Sum(rhs),rhsMax =   1.38773531346836E-08  5.84313034721356E-03
 cg2d: Sum(rhs),rhsMax =   1.40102306214751E-08  5.86026133387418E-03
 cg2d: Sum(rhs),rhsMax =   1.41431632239009E-08  5.87740654240430E-03
 cg2d: Sum(rhs),rhsMax =   1.42757926660519E-08  5.89457410232530E-03
 cg2d: Sum(rhs),rhsMax =   1.44116707213870E-08  5.91161174144914E-03
 cg2d: Sum(rhs),rhsMax =   1.45476025670277E-08  5.92851924323871E-03
 cg2d: Sum(rhs),rhsMax =   1.46875278120295E-08  5.94529640426487E-03
 cg2d: Sum(rhs),rhsMax =   1.48279922611294E-08  5.96194303614096E-03
 cg2d: Sum(rhs),rhsMax =   1.49700779307482E-08  5.97875907540886E-03
 cg2d: Sum(rhs),rhsMax =   1.51144516589985E-08  5.99545528208555E-03
 cg2d: Sum(rhs),rhsMax =   1.52600678308967E-08  6.01202321569285E-03
 cg2d: Sum(rhs),rhsMax =   1.54305729374582E-08  6.02846273066045E-03
 cg2d: Sum(rhs),rhsMax =   1.55996761480592E-08  6.04477367558162E-03
 cg2d: Sum(rhs),rhsMax =   1.57725237696915E-08  6.06107432413109E-03
 cg2d: Sum(rhs),rhsMax =   1.59488841543209E-08  6.07744561185799E-03
 cg2d: Sum(rhs),rhsMax =   1.61250364311138E-08  6.09369070896126E-03
(PID.TID 0000.0001)      cg2d_init_res =   6.15828111889593E-02
(PID.TID 0000.0001)      cg2d_iters(min,last) =      -1     568
(PID.TID 0000.0001)      cg2d_last_res =   9.71188175270408E-08
(PID.TID 0000.0001) // =======================================================
(PID.TID 0000.0001) // Begin MONITOR dynamic field statistics
(PID.TID 0000.0001) // =======================================================
(PID.TID 0000.0001) %MON time_tsnumber                =                   256
(PID.TID 0000.0001) %MON time_secondsf                =   1.3824000000000E+06
(PID.TID 0000.0001) %MON dynstat_eta_max              =   2.7734959120439E-02
(PID.TID 0000.0001) %MON dynstat_eta_min              =  -1.0866404983270E-02
(PID.TID 0000.0001) %MON dynstat_eta_mean             =  -9.5979157550312E-12
(PID.TID 0000.0001) %MON dynstat_eta_sd               =   9.4957451886554E-03
(PID.TID 0000.0001) %MON dynstat_eta_del2             =   1.3229751525160E-07
(PID.TID 0000.0001) %MON dynstat_uvel_max             =   1.9673918108818E-02
(PID.TID 0000.0001) %MON dynstat_uvel_min             =  -7.6315554137943E-03
(PID.TID 0000.0001) %MON dynstat_uvel_mean            =   2.8985128975071E-08
(PID.TID 0000.0001) %MON dynstat_uvel_sd              =   4.9097291346619E-03
(PID.TID 0000.0001) %MON dynstat_uvel_del2            =   2.3562938266724E-07
(PID.TID 0000.0001) %MON dynstat_vvel_max             =   4.2364640114253E-02
(PID.TID 0000.0001) %MON dynstat_vvel_min             =  -6.4860492213020E-03
(PID.TID 0000.0001) %MON dynstat_vvel_mean            =   1.9328936013193E-07
(PID.TID 0000.0001) %MON dynstat_vvel_sd              =   7.0499456717915E-03
(PID.TID 0000.0001) %MON dynstat_vvel_del2            =   9.2885462814871E-07
(PID.TID 0000.0001) %MON dynstat_wvel_max             =   2.4182064040797E-08
(PID.TID 0000.0001) %MON dynstat_wvel_min             =  -2.0329113164335E-08
(PID.TID 0000.0001) %MON dynstat_wvel_mean            =   9.3627427550630E-22
(PID.TID 0000.0001) %MON dynstat_wvel_sd              =   7.2119132266298E-09
(PID.TID 0000.0001) %MON dynstat_wvel_del2            =   1.0373093102546E-13
(PID.TID 0000.0001) %MON dynstat_theta_max            =   2.0000000000000E+01
(PID.TID 0000.0001) %MON dynstat_theta_min            =   2.0000000000000E+01
(PID.TID 0000.0001) %MON dynstat_theta_mean           =   1.9999999999999E+01
(PID.TID 0000.0001) %MON dynstat_theta_sd             =   1.1972645097557E-12
(PID.TID 0000.0001) %MON dynstat_theta_del2           =   0.0000000000000E+00
(PID.TID 0000.0001) %MON dynstat_salt_max             =   3.0000000000000E+01
(PID.TID 0000.0001) %MON dynstat_salt_min             =   3.0000000000000E+01
(PID.TID 0000.0001) %MON dynstat_salt_mean            =   2.9999999999998E+01
(PID.TID 0000.0001) %MON dynstat_salt_sd              =   2.1529444893531E-12
(PID.TID 0000.0001) %MON dynstat_salt_del2            =   0.0000000000000E+00
(PID.TID 0000.0001) %MON trAdv_CFL_u_max              =   2.1157134283284E-02
(PID.TID 0000.0001) %MON trAdv_CFL_v_max              =   4.5605624756304E-02
(PID.TID 0000.0001) %MON trAdv_CFL_w_max              =   2.6789314949952E-08
(PID.TID 0000.0001) %MON advcfl_uvel_max              =   2.1247831557523E-02
(PID.TID 0000.0001) %MON advcfl_vvel_max              =   4.5753811323393E-02
(PID.TID 0000.0001) %MON advcfl_wvel_max              =   5.2233258328121E-08
(PID.TID 0000.0001) %MON advcfl_W_hf_max              =   0.0000000000000E+00
(PID.TID 0000.0001) %MON pe_b_mean                    =   9.2255418032950E-08
(PID.TID 0000.0001) %MON ke_max                       =   8.9732264380291E-04
(PID.TID 0000.0001) %MON ke_mean                      =   3.6737470004645E-05
(PID.TID 0000.0001) %MON ke_vol                       =   7.2529629296391E+15
(PID.TID 0000.0001) %MON vort_r_min                   =  -4.3279782489831E-07
(PID.TID 0000.0001) %MON vort_r_max                   =   2.4240695772039E-06
(PID.TID 0000.0001) %MON vort_a_mean                  =   8.2300000000000E-05
(PID.TID 0000.0001) %MON vort_a_sd                    =   7.1319844311947E-06
(PID.TID 0000.0001) %MON vort_p_mean                  =   8.6919888360247E-05
(PID.TID 0000.0001) %MON vort_p_sd                    =   1.7885918915478E-05
(PID.TID 0000.0001) %MON surfExpan_theta_mean         =   1.8088974329556E-20
(PID.TID 0000.0001) %MON surfExpan_salt_mean          =   2.7108400644059E-20
(PID.TID 0000.0001) // =======================================================
(PID.TID 0000.0001) // End MONITOR dynamic field statistics
(PID.TID 0000.0001) // =======================================================
 cg2d: Sum(rhs),rhsMax =   1.63018828922001E-08  6.10980951005109E-03
 cg2d: Sum(rhs),rhsMax =   1.64805387496691E-08  6.12580192325558E-03
 cg2d: Sum(rhs),rhsMax =   1.66587496245457E-08  6.14166786737029E-03
 cg2d: Sum(rhs),rhsMax =   1.68414072427431E-08  6.15762886924164E-03
 cg2d: Sum(rhs),rhsMax =   1.70253799183784E-08  6.17356850359943E-03
 cg2d: Sum(rhs),rhsMax =   1.72396347648818E-08  6.18938416550061E-03
 cg2d: Sum(rhs),rhsMax =   1.74517285640025E-08  6.20507579146446E-03
 cg2d: Sum(rhs),rhsMax =   1.76657859417284E-08  6.22064334512316E-03
 cg2d: Sum(rhs),rhsMax =   1.79105368765253E-08  6.23608679124196E-03
 cg2d: Sum(rhs),rhsMax =   1.81574634303822E-08  6.25170119565590E-03
 cg2d: Sum(rhs),rhsMax =   1.84047337370430E-08  6.26723173232947E-03
 cg2d: Sum(rhs),rhsMax =   1.86811952278959E-08  6.28264076138834E-03
 cg2d: Sum(rhs),rhsMax =   1.89627491799238E-08  6.29792826310759E-03
 cg2d: Sum(rhs),rhsMax =   1.92353142251106E-08  6.31309424932766E-03
 cg2d: Sum(rhs),rhsMax =   1.95435967530883E-08  6.32813872718912E-03
 cg2d: Sum(rhs),rhsMax =   1.98811533069776E-08  6.34339552571167E-03
(PID.TID 0000.0001)      cg2d_init_res =   5.72393940317813E-02
(PID.TID 0000.0001)      cg2d_iters(min,last) =      -1     563
(PID.TID 0000.0001)      cg2d_last_res =   9.54836262760160E-08
(PID.TID 0000.0001) // =======================================================
(PID.TID 0000.0001) // Begin MONITOR dynamic field statistics
(PID.TID 0000.0001) // =======================================================
(PID.TID 0000.0001) %MON time_tsnumber                =                   272
(PID.TID 0000.0001) %MON time_secondsf                =   1.4688000000000E+06
(PID.TID 0000.0001) %MON dynstat_eta_max              =   2.8771184407351E-02
(PID.TID 0000.0001) %MON dynstat_eta_min              =  -1.0743717804851E-02
(PID.TID 0000.0001) %MON dynstat_eta_mean             =  -1.2383935100081E-11
(PID.TID 0000.0001) %MON dynstat_eta_sd               =   9.5309588147670E-03
(PID.TID 0000.0001) %MON dynstat_eta_del2             =   1.3893172164871E-07
(PID.TID 0000.0001) %MON dynstat_uvel_max             =   2.0956445487521E-02
(PID.TID 0000.0001) %MON dynstat_uvel_min             =  -8.1940776513747E-03
(PID.TID 0000.0001) %MON dynstat_uvel_mean            =   6.5449171420130E-08
(PID.TID 0000.0001) %MON dynstat_uvel_sd              =   5.0537341471106E-03
(PID.TID 0000.0001) %MON dynstat_uvel_del2            =   2.4096589947728E-07
(PID.TID 0000.0001) %MON dynstat_vvel_max             =   4.4495217173473E-02
(PID.TID 0000.0001) %MON dynstat_vvel_min             =  -6.6060248108513E-03
(PID.TID 0000.0001) %MON dynstat_vvel_mean            =   1.5404239620856E-07
(PID.TID 0000.0001) %MON dynstat_vvel_sd              =   7.2172125574858E-03
(PID.TID 0000.0001) %MON dynstat_vvel_del2            =   9.5009855179480E-07
(PID.TID 0000.0001) %MON dynstat_wvel_max             =   2.2820209574420E-08
(PID.TID 0000.0001) %MON dynstat_wvel_min             =  -2.1128532551229E-08
(PID.TID 0000.0001) %MON dynstat_wvel_mean            =   8.0994201452988E-22
(PID.TID 0000.0001) %MON dynstat_wvel_sd              =   6.9098114101858E-09
(PID.TID 0000.0001) %MON dynstat_wvel_del2            =   1.0075285701062E-13
(PID.TID 0000.0001) %MON dynstat_theta_max            =   2.0000000000000E+01
(PID.TID 0000.0001) %MON dynstat_theta_min            =   2.0000000000000E+01
(PID.TID 0000.0001) %MON dynstat_theta_mean           =   1.9999999999999E+01
(PID.TID 0000.0001) %MON dynstat_theta_sd             =   1.1972645097557E-12
(PID.TID 0000.0001) %MON dynstat_theta_del2           =   0.0000000000000E+00
(PID.TID 0000.0001) %MON dynstat_salt_max             =   3.0000000000000E+01
(PID.TID 0000.0001) %MON dynstat_salt_min             =   3.0000000000000E+01
(PID.TID 0000.0001) %MON dynstat_salt_mean            =   2.9999999999998E+01
(PID.TID 0000.0001) %MON dynstat_salt_sd              =   2.1529444893531E-12
(PID.TID 0000.0001) %MON dynstat_salt_del2            =   0.0000000000000E+00
(PID.TID 0000.0001) %MON trAdv_CFL_u_max              =   2.2543435411224E-02
(PID.TID 0000.0001) %MON trAdv_CFL_v_max              =   4.7914699505997E-02
(PID.TID 0000.0001) %MON trAdv_CFL_w_max              =   2.5250216609657E-08
(PID.TID 0000.0001) %MON advcfl_uvel_max              =   2.2632961126522E-02
(PID.TID 0000.0001) %MON advcfl_vvel_max              =   4.8054834547351E-02
(PID.TID 0000.0001) %MON advcfl_wvel_max              =   4.9291652680747E-08
(PID.TID 0000.0001) %MON advcfl_W_hf_max              =   0.0000000000000E+00
(PID.TID 0000.0001) %MON pe_b_mean                    =   9.2940919024782E-08
(PID.TID 0000.0001) %MON ke_max                       =   9.8984003063751E-04
(PID.TID 0000.0001) %MON ke_mean                      =   3.8639475524667E-05
(PID.TID 0000.0001) %MON ke_vol                       =   7.2529629296391E+15
(PID.TID 0000.0001) %MON vort_r_min                   =  -4.7293142079597E-07
(PID.TID 0000.0001) %MON vort_r_max                   =   2.5239367509314E-06
(PID.TID 0000.0001) %MON vort_a_mean                  =   8.2299999999999E-05
(PID.TID 0000.0001) %MON vort_a_sd                    =   7.1321736559221E-06
(PID.TID 0000.0001) %MON vort_p_mean                  =   8.6919888360246E-05
(PID.TID 0000.0001) %MON vort_p_sd                    =   1.7887593278584E-05
(PID.TID 0000.0001) %MON surfExpan_theta_mean         =   1.5513924998249E-20
(PID.TID 0000.0001) %MON surfExpan_salt_mean          =   2.3257793484898E-20
(PID.TID 0000.0001) // =======================================================
(PID.TID 0000.0001) // End MONITOR dynamic field statistics
(PID.TID 0000.0001) // =======================================================
 cg2d: Sum(rhs),rhsMax =   2.02110149553902E-08  6.35854042670590E-03
 cg2d: Sum(rhs),rhsMax =   2.05715863926814E-08  6.37356648870544E-03
 cg2d: Sum(rhs),rhsMax =   2.09624583507456E-08  6.38847374506519E-03
 cg2d: Sum(rhs),rhsMax =   2.13410418243437E-08  6.40326223774683E-03
 cg2d: Sum(rhs),rhsMax =   2.17493063871255E-08  6.41793202291365E-03
 cg2d: Sum(rhs),rhsMax =   2.21387884309643E-08  6.43281176613930E-03
 cg2d: Sum(rhs),rhsMax =   2.25604481624009E-08  6.44759512265408E-03
 cg2d: Sum(rhs),rhsMax =   2.30100354534080E-08  6.46226249361959E-03
 cg2d: Sum(rhs),rhsMax =   2.34476381661547E-08  6.47681393466233E-03
 cg2d: Sum(rhs),rhsMax =   2.38716373265890E-08  6.49124952195282E-03
 cg2d: Sum(rhs),rhsMax =   2.42940192841240E-08  6.50556934218257E-03
 cg2d: Sum(rhs),rhsMax =   2.47106463936719E-08  6.52004676822225E-03
 cg2d: Sum(rhs),rhsMax =   2.51327782543886E-08  6.53449305888581E-03
 cg2d: Sum(rhs),rhsMax =   2.55600715523552E-08  6.54882632943015E-03
 cg2d: Sum(rhs),rhsMax =   2.59964002252006E-08  6.56304667593241E-03
 cg2d: Sum(rhs),rhsMax =   2.64534219217294E-08  6.57715420133945E-03
(PID.TID 0000.0001)      cg2d_init_res =   5.36198346853244E-02
(PID.TID 0000.0001)      cg2d_iters(min,last) =      -1     558
(PID.TID 0000.0001)      cg2d_last_res =   9.56467149254168E-08
(PID.TID 0000.0001) // =======================================================
(PID.TID 0000.0001) // Begin MONITOR dynamic field statistics
(PID.TID 0000.0001) // =======================================================
(PID.TID 0000.0001) %MON time_tsnumber                =                   288
(PID.TID 0000.0001) %MON time_secondsf                =   1.5552000000000E+06
(PID.TID 0000.0001) %MON dynstat_eta_max              =   2.9687980671268E-02
(PID.TID 0000.0001) %MON dynstat_eta_min              =  -1.0648558243339E-02
(PID.TID 0000.0001) %MON dynstat_eta_mean             =  -1.7104172119454E-11
(PID.TID 0000.0001) %MON dynstat_eta_sd               =   9.5325253700601E-03
(PID.TID 0000.0001) %MON dynstat_eta_del2             =   1.4503994495801E-07
(PID.TID 0000.0001) %MON dynstat_uvel_max             =   2.2222346294675E-02
(PID.TID 0000.0001) %MON dynstat_uvel_min             =  -8.7679110394308E-03
(PID.TID 0000.0001) %MON dynstat_uvel_mean            =   8.6687269819252E-08
(PID.TID 0000.0001) %MON dynstat_uvel_sd              =   5.1921722470517E-03
(PID.TID 0000.0001) %MON dynstat_uvel_del2            =   2.4606900156036E-07
(PID.TID 0000.0001) %MON dynstat_vvel_max             =   4.6494990367079E-02
(PID.TID 0000.0001) %MON dynstat_vvel_min             =  -6.6970286299091E-03
(PID.TID 0000.0001) %MON dynstat_vvel_mean            =   1.1299823229223E-07
(PID.TID 0000.0001) %MON dynstat_vvel_sd              =   7.3573040638178E-03
(PID.TID 0000.0001) %MON dynstat_vvel_del2            =   9.6799724162758E-07
(PID.TID 0000.0001) %MON dynstat_wvel_max             =   2.1415449443739E-08
(PID.TID 0000.0001) %MON dynstat_wvel_min             =  -2.1616505194106E-08
(PID.TID 0000.0001) %MON dynstat_wvel_mean            =   1.0170246634412E-21
(PID.TID 0000.0001) %MON dynstat_wvel_sd              =   6.6014021988294E-09
(PID.TID 0000.0001) %MON dynstat_wvel_del2            =   9.8217956054810E-14
(PID.TID 0000.0001) %MON dynstat_theta_max            =   2.0000000000000E+01
(PID.TID 0000.0001) %MON dynstat_theta_min            =   2.0000000000000E+01
(PID.TID 0000.0001) %MON dynstat_theta_mean           =   1.9999999999999E+01
(PID.TID 0000.0001) %MON dynstat_theta_sd             =   1.1972645097557E-12
(PID.TID 0000.0001) %MON dynstat_theta_del2           =   0.0000000000000E+00
(PID.TID 0000.0001) %MON dynstat_salt_max             =   3.0000000000000E+01
(PID.TID 0000.0001) %MON dynstat_salt_min             =   3.0000000000000E+01
(PID.TID 0000.0001) %MON dynstat_salt_mean            =   2.9999999999998E+01
(PID.TID 0000.0001) %MON dynstat_salt_sd              =   2.1529444893531E-12
(PID.TID 0000.0001) %MON dynstat_salt_del2            =   0.0000000000000E+00
(PID.TID 0000.0001) %MON trAdv_CFL_u_max              =   2.3910950258356E-02
(PID.TID 0000.0001) %MON trAdv_CFL_v_max              =   5.0082811835735E-02
(PID.TID 0000.0001) %MON trAdv_CFL_w_max              =   2.3664958667272E-08
(PID.TID 0000.0001) %MON advcfl_uvel_max              =   2.4000133998249E-02
(PID.TID 0000.0001) %MON advcfl_vvel_max              =   5.0214589596446E-02
(PID.TID 0000.0001) %MON advcfl_wvel_max              =   4.6691651219269E-08
(PID.TID 0000.0001) %MON advcfl_W_hf_max              =   0.0000000000000E+00
(PID.TID 0000.0001) %MON pe_b_mean                    =   9.2971473989294E-08
(PID.TID 0000.0001) %MON ke_max                       =   1.0807551856489E-03
(PID.TID 0000.0001) %MON ke_mean                      =   4.0361782605710E-05
(PID.TID 0000.0001) %MON ke_vol                       =   7.2529629296391E+15
(PID.TID 0000.0001) %MON vort_r_min                   =  -5.1268135670015E-07
(PID.TID 0000.0001) %MON vort_r_max                   =   2.6167709086849E-06
(PID.TID 0000.0001) %MON vort_a_mean                  =   8.2300000000000E-05
(PID.TID 0000.0001) %MON vort_a_sd                    =   7.1323531053201E-06
(PID.TID 0000.0001) %MON vort_p_mean                  =   8.6919888360247E-05
(PID.TID 0000.0001) %MON vort_p_sd                    =   1.7889112277338E-05
(PID.TID 0000.0001) %MON surfExpan_theta_mean         =   2.0137933667546E-20
(PID.TID 0000.0001) %MON surfExpan_salt_mean          =   3.0268571045726E-20
(PID.TID 0000.0001) // =======================================================
(PID.TID 0000.0001) // End MONITOR dynamic field statistics
(PID.TID 0000.0001) // =======================================================
 cg2d: Sum(rhs),rhsMax =   2.69301107091308E-08  6.59114901568871E-03
 cg2d: Sum(rhs),rhsMax =   2.74300130925081E-08  6.60519018540799E-03
 cg2d: Sum(rhs),rhsMax =   2.79095749271957E-08  6.61932399378944E-03
 cg2d: Sum(rhs),rhsMax =   2.84180626513447E-08  6.63334785876037E-03
 cg2d: Sum(rhs),rhsMax =   2.89001205380085E-08  6.64726189649438E-03
 cg2d: Sum(rhs),rhsMax =   2.94105582995113E-08  6.66106622131938E-03
 cg2d: Sum(rhs),rhsMax =   2.98922150730047E-08  6.67476096402759E-03
 cg2d: Sum(rhs),rhsMax =   3.03733846025722E-08  6.68834627017852E-03
 cg2d: Sum(rhs),rhsMax =   3.08080133591682E-08  6.70217197557764E-03
 cg2d: Sum(rhs),rhsMax =   3.10898383131669E-08  6.71591098421357E-03
 cg2d: Sum(rhs),rhsMax =   3.18372899172498E-08  6.72954332881070E-03
 cg2d: Sum(rhs),rhsMax =   3.24591736787505E-08  6.74306910698507E-03
 cg2d: Sum(rhs),rhsMax =   3.30234727705797E-08  6.75648848866121E-03
 cg2d: Sum(rhs),rhsMax =   3.35293659746438E-08  6.76980162242875E-03
 cg2d: Sum(rhs),rhsMax =   3.40465916813526E-08  6.78310874950546E-03
 cg2d: Sum(rhs),rhsMax =   3.45816923413150E-08  6.79658710329793E-03
(PID.TID 0000.0001)      cg2d_init_res =   5.05433190555029E-02
(PID.TID 0000.0001)      cg2d_iters(min,last) =      -1     566
(PID.TID 0000.0001)      cg2d_last_res =   9.36584293449512E-08
(PID.TID 0000.0001) // =======================================================
(PID.TID 0000.0001) // Begin MONITOR dynamic field statistics
(PID.TID 0000.0001) // =======================================================
(PID.TID 0000.0001) %MON time_tsnumber                =                   304
(PID.TID 0000.0001) %MON time_secondsf                =   1.6416000000000E+06
(PID.TID 0000.0001) %MON dynstat_eta_max              =   3.0488851997099E-02
(PID.TID 0000.0001) %MON dynstat_eta_min              =  -1.0590193711573E-02
(PID.TID 0000.0001) %MON dynstat_eta_mean             =  -2.3010168868210E-11
(PID.TID 0000.0001) %MON dynstat_eta_sd               =   9.5097762582578E-03
(PID.TID 0000.0001) %MON dynstat_eta_del2             =   1.5065435009344E-07
(PID.TID 0000.0001) %MON dynstat_uvel_max             =   2.3471371282239E-02
(PID.TID 0000.0001) %MON dynstat_uvel_min             =  -9.3403560771822E-03
(PID.TID 0000.0001) %MON dynstat_uvel_mean            =   9.2949331146607E-08
(PID.TID 0000.0001) %MON dynstat_uvel_sd              =   5.3245505485246E-03
(PID.TID 0000.0001) %MON dynstat_uvel_del2            =   2.5116934852012E-07
(PID.TID 0000.0001) %MON dynstat_vvel_max             =   4.8388671098037E-02
(PID.TID 0000.0001) %MON dynstat_vvel_min             =  -6.7695429656966E-03
(PID.TID 0000.0001) %MON dynstat_vvel_mean            =   7.2811267800325E-08
(PID.TID 0000.0001) %MON dynstat_vvel_sd              =   7.4751605925922E-03
(PID.TID 0000.0001) %MON dynstat_vvel_del2            =   9.8322899821888E-07
(PID.TID 0000.0001) %MON dynstat_wvel_max             =   2.0014639829751E-08
(PID.TID 0000.0001) %MON dynstat_wvel_min             =  -2.1816277941689E-08
(PID.TID 0000.0001) %MON dynstat_wvel_mean            =   2.6654432678102E-21
(PID.TID 0000.0001) %MON dynstat_wvel_sd              =   6.2970411143690E-09
(PID.TID 0000.0001) %MON dynstat_wvel_del2            =   9.5770420476709E-14
(PID.TID 0000.0001) %MON dynstat_theta_max            =   2.0000000000000E+01
(PID.TID 0000.0001) %MON dynstat_theta_min            =   2.0000000000000E+01
(PID.TID 0000.0001) %MON dynstat_theta_mean           =   1.9999999999999E+01
(PID.TID 0000.0001) %MON dynstat_theta_sd             =   1.1972645097557E-12
(PID.TID 0000.0001) %MON dynstat_theta_del2           =   0.0000000000000E+00
(PID.TID 0000.0001) %MON dynstat_salt_max             =   3.0000000000000E+01
(PID.TID 0000.0001) %MON dynstat_salt_min             =   3.0000000000000E+01
(PID.TID 0000.0001) %MON dynstat_salt_mean            =   2.9999999999998E+01
(PID.TID 0000.0001) %MON dynstat_salt_sd              =   2.1529444893531E-12
(PID.TID 0000.0001) %MON dynstat_salt_del2            =   0.0000000000000E+00
(PID.TID 0000.0001) %MON trAdv_CFL_u_max              =   2.5261300734081E-02
(PID.TID 0000.0001) %MON trAdv_CFL_v_max              =   5.2134688005536E-02
(PID.TID 0000.0001) %MON trAdv_CFL_w_max              =   2.2098424739082E-08
(PID.TID 0000.0001) %MON advcfl_uvel_max              =   2.5349080984818E-02
(PID.TID 0000.0001) %MON advcfl_vvel_max              =   5.2259764785880E-02
(PID.TID 0000.0001) %MON advcfl_wvel_max              =   4.7123160354048E-08
(PID.TID 0000.0001) %MON advcfl_W_hf_max              =   0.0000000000000E+00
(PID.TID 0000.0001) %MON pe_b_mean                    =   9.2528255711395E-08
(PID.TID 0000.0001) %MON ke_max                       =   1.1705699595729E-03
(PID.TID 0000.0001) %MON ke_mean                      =   4.1924859134444E-05
(PID.TID 0000.0001) %MON ke_vol                       =   7.2529629296391E+15
(PID.TID 0000.0001) %MON vort_r_min                   =  -5.5190832873342E-07
(PID.TID 0000.0001) %MON vort_r_max                   =   2.7034761920837E-06
(PID.TID 0000.0001) %MON vort_a_mean                  =   8.2300000000000E-05
(PID.TID 0000.0001) %MON vort_a_sd                    =   7.1325228933567E-06
(PID.TID 0000.0001) %MON vort_p_mean                  =   8.6919888360247E-05
(PID.TID 0000.0001) %MON vort_p_sd                    =   1.7890486033383E-05
(PID.TID 0000.0001) %MON surfExpan_theta_mean         =   5.3067557472283E-20
(PID.TID 0000.0001) %MON surfExpan_salt_mean          =   7.9604403062853E-20
(PID.TID 0000.0001) // =======================================================
(PID.TID 0000.0001) // End MONITOR dynamic field statistics
(PID.TID 0000.0001) // =======================================================
 cg2d: Sum(rhs),rhsMax =   3.50625302680818E-08  6.80996194442672E-03
 cg2d: Sum(rhs),rhsMax =   3.55568062597456E-08  6.82323342866536E-03
 cg2d: Sum(rhs),rhsMax =   3.60675354426493E-08  6.83640170527371E-03
 cg2d: Sum(rhs),rhsMax =   3.65942977725853E-08  6.84946692906923E-03
 cg2d: Sum(rhs),rhsMax =   3.71386384215300E-08  6.86242925945815E-03
 cg2d: Sum(rhs),rhsMax =   3.76976704210413E-08  6.87543871635915E-03
 cg2d: Sum(rhs),rhsMax =   3.82788761122549E-08  6.88857972936325E-03
 cg2d: Sum(rhs),rhsMax =   3.87818294492193E-08  6.90162056075524E-03
 cg2d: Sum(rhs),rhsMax =   3.93017459861256E-08  6.91456135472621E-03
 cg2d: Sum(rhs),rhsMax =   3.98405624740805E-08  6.92740227698750E-03
 cg2d: Sum(rhs),rhsMax =   4.04010902701341E-08  6.94014348819637E-03
 cg2d: Sum(rhs),rhsMax =   4.09931221120874E-08  6.95278515287231E-03
 cg2d: Sum(rhs),rhsMax =   4.16088420975014E-08  6.96544301192297E-03
 cg2d: Sum(rhs),rhsMax =   4.22579167023290E-08  6.97827604086988E-03
 cg2d: Sum(rhs),rhsMax =   4.29403686514479E-08  6.99101217697173E-03
 cg2d: Sum(rhs),rhsMax =   4.35418356144884E-08  7.00365157791583E-03
(PID.TID 0000.0001)      cg2d_init_res =   4.78504744651777E-02
(PID.TID 0000.0001)      cg2d_iters(min,last) =      -1     568
(PID.TID 0000.0001)      cg2d_last_res =   9.12749498181345E-08
(PID.TID 0000.0001) // =======================================================
(PID.TID 0000.0001) // Begin MONITOR dynamic field statistics
(PID.TID 0000.0001) // =======================================================
(PID.TID 0000.0001) %MON time_tsnumber                =                   320
(PID.TID 0000.0001) %MON time_secondsf                =   1.7280000000000E+06
(PID.TID 0000.0001) %MON dynstat_eta_max              =   3.1183184454827E-02
(PID.TID 0000.0001) %MON dynstat_eta_min              =  -1.0572496379379E-02
(PID.TID 0000.0001) %MON dynstat_eta_mean             =  -2.9874754942262E-11
(PID.TID 0000.0001) %MON dynstat_eta_sd               =   9.4715406792494E-03
(PID.TID 0000.0001) %MON dynstat_eta_del2             =   1.5581840300095E-07
(PID.TID 0000.0001) %MON dynstat_uvel_max             =   2.4705565184791E-02
(PID.TID 0000.0001) %MON dynstat_uvel_min             =  -9.9027551437667E-03
(PID.TID 0000.0001) %MON dynstat_uvel_mean            =   8.5654235030916E-08
(PID.TID 0000.0001) %MON dynstat_uvel_sd              =   5.4506445224047E-03
(PID.TID 0000.0001) %MON dynstat_uvel_del2            =   2.5646152929172E-07
(PID.TID 0000.0001) %MON dynstat_vvel_max             =   5.0189896392673E-02
(PID.TID 0000.0001) %MON dynstat_vvel_min             =  -6.8358727601054E-03
(PID.TID 0000.0001) %MON dynstat_vvel_mean            =   3.5913491306112E-08
(PID.TID 0000.0001) %MON dynstat_vvel_sd              =   7.5753086011185E-03
(PID.TID 0000.0001) %MON dynstat_vvel_del2            =   9.9643825008169E-07
(PID.TID 0000.0001) %MON dynstat_wvel_max             =   1.8673214511946E-08
(PID.TID 0000.0001) %MON dynstat_wvel_min             =  -2.1747336735716E-08
(PID.TID 0000.0001) %MON dynstat_wvel_mean            =   1.1472331109274E-21
(PID.TID 0000.0001) %MON dynstat_wvel_sd              =   6.0119730809822E-09
(PID.TID 0000.0001) %MON dynstat_wvel_del2            =   9.3784339706702E-14
(PID.TID 0000.0001) %MON dynstat_theta_max            =   2.0000000000000E+01
(PID.TID 0000.0001) %MON dynstat_theta_min            =   2.0000000000000E+01
(PID.TID 0000.0001) %MON dynstat_theta_mean           =   1.9999999999999E+01
(PID.TID 0000.0001) %MON dynstat_theta_sd             =   1.1972645097557E-12
(PID.TID 0000.0001) %MON dynstat_theta_del2           =   0.0000000000000E+00
(PID.TID 0000.0001) %MON dynstat_salt_max             =   3.0000000000000E+01
(PID.TID 0000.0001) %MON dynstat_salt_min             =   3.0000000000000E+01
(PID.TID 0000.0001) %MON dynstat_salt_mean            =   2.9999999999998E+01
(PID.TID 0000.0001) %MON dynstat_salt_sd              =   2.1529444893531E-12
(PID.TID 0000.0001) %MON dynstat_salt_del2            =   0.0000000000000E+00
(PID.TID 0000.0001) %MON trAdv_CFL_u_max              =   2.6594204539107E-02
(PID.TID 0000.0001) %MON trAdv_CFL_v_max              =   5.4086658256687E-02
(PID.TID 0000.0001) %MON trAdv_CFL_w_max              =   2.0597296621574E-08
(PID.TID 0000.0001) %MON advcfl_uvel_max              =   2.6682010399574E-02
(PID.TID 0000.0001) %MON advcfl_vvel_max              =   5.4205088104086E-02
(PID.TID 0000.0001) %MON advcfl_wvel_max              =   4.6974247349147E-08
(PID.TID 0000.0001) %MON advcfl_W_hf_max              =   0.0000000000000E+00
(PID.TID 0000.0001) %MON pe_b_mean                    =   9.1785702144113E-08
(PID.TID 0000.0001) %MON ke_max                       =   1.2592603941278E-03
(PID.TID 0000.0001) %MON ke_mean                      =   4.3351389581162E-05
(PID.TID 0000.0001) %MON ke_vol                       =   7.2529629296391E+15
(PID.TID 0000.0001) %MON vort_r_min                   =  -5.9055665921814E-07
(PID.TID 0000.0001) %MON vort_r_max                   =   2.7847853379252E-06
(PID.TID 0000.0001) %MON vort_a_mean                  =   8.2300000000000E-05
(PID.TID 0000.0001) %MON vort_a_sd                    =   7.1326836919689E-06
(PID.TID 0000.0001) %MON vort_p_mean                  =   8.6919888360247E-05
(PID.TID 0000.0001) %MON vort_p_sd                    =   1.7891727594948E-05
(PID.TID 0000.0001) %MON surfExpan_theta_mean         =   2.2760563859823E-20
(PID.TID 0000.0001) %MON surfExpan_salt_mean          =   3.4124915054327E-20
(PID.TID 0000.0001) // =======================================================
(PID.TID 0000.0001) // End MONITOR dynamic field statistics
(PID.TID 0000.0001) // =======================================================
 cg2d: Sum(rhs),rhsMax =   4.41861210433159E-08  7.01619440413948E-03
 cg2d: Sum(rhs),rhsMax =   4.48731957061049E-08  7.02864081712873E-03
 cg2d: Sum(rhs),rhsMax =   4.56128643258613E-08  7.04099098045765E-03
 cg2d: Sum(rhs),rhsMax =   4.64083457739350E-08  7.05324505972539E-03
 cg2d: Sum(rhs),rhsMax =   4.72650160295018E-08  7.06578697968548E-03
 cg2d: Sum(rhs),rhsMax =   4.81949072074495E-08  7.07824667542739E-03
 cg2d: Sum(rhs),rhsMax =   4.92040239143121E-08  7.09061286443160E-03
 cg2d: Sum(rhs),rhsMax =   5.03023502001348E-08  7.10288570147163E-03
 cg2d: Sum(rhs),rhsMax =   5.15003862316260E-08  7.11506534373944E-03
 cg2d: Sum(rhs),rhsMax =   5.28106055067146E-08  7.12715194878226E-03
 cg2d: Sum(rhs),rhsMax =   5.42437168151583E-08  7.13914567618450E-03
 cg2d: Sum(rhs),rhsMax =   5.58221730680153E-08  7.15120087081676E-03
 cg2d: Sum(rhs),rhsMax =   5.75714630534491E-08  7.16341105597730E-03
 cg2d: Sum(rhs),rhsMax =   5.95140485087908E-08  7.17553086364544E-03
 cg2d: Sum(rhs),rhsMax =   6.16961928368714E-08  7.18756043977541E-03
 cg2d: Sum(rhs),rhsMax =   6.41618175499514E-08  7.19949993183309E-03
(PID.TID 0000.0001)      cg2d_init_res =   4.54272056011334E-02
(PID.TID 0000.0001)      cg2d_iters(min,last) =      -1     568
(PID.TID 0000.0001)      cg2d_last_res =   9.50591128092002E-08
(PID.TID 0000.0001) // =======================================================
(PID.TID 0000.0001) // Begin MONITOR dynamic field statistics
(PID.TID 0000.0001) // =======================================================
(PID.TID 0000.0001) %MON time_tsnumber                =                   336
(PID.TID 0000.0001) %MON time_secondsf                =   1.8144000000000E+06
(PID.TID 0000.0001) %MON dynstat_eta_max              =   3.1780991730456E-02
(PID.TID 0000.0001) %MON dynstat_eta_min              =  -1.0594366751978E-02
(PID.TID 0000.0001) %MON dynstat_eta_mean             =  -4.6553860808405E-11
(PID.TID 0000.0001) %MON dynstat_eta_sd               =   9.4258934402830E-03
(PID.TID 0000.0001) %MON dynstat_eta_del2             =   1.6058151275083E-07
(PID.TID 0000.0001) %MON dynstat_uvel_max             =   2.5925419414426E-02
(PID.TID 0000.0001) %MON dynstat_uvel_min             =  -1.0447174996673E-02
(PID.TID 0000.0001) %MON dynstat_uvel_mean            =   6.7204945864618E-08
(PID.TID 0000.0001) %MON dynstat_uvel_sd              =   5.5705584292978E-03
(PID.TID 0000.0001) %MON dynstat_uvel_del2            =   2.6204797385178E-07
(PID.TID 0000.0001) %MON dynstat_vvel_max             =   5.1890024492039E-02
(PID.TID 0000.0001) %MON dynstat_vvel_min             =  -7.2033825187712E-03
(PID.TID 0000.0001) %MON dynstat_vvel_mean            =   4.3422007173630E-09
(PID.TID 0000.0001) %MON dynstat_vvel_sd              =   7.6616497790028E-03
(PID.TID 0000.0001) %MON dynstat_vvel_del2            =   1.0082107762348E-06
(PID.TID 0000.0001) %MON dynstat_wvel_max             =   1.7436777902767E-08
(PID.TID 0000.0001) %MON dynstat_wvel_min             =  -2.1463578683324E-08
(PID.TID 0000.0001) %MON dynstat_wvel_mean            =   1.4647308133831E-21
(PID.TID 0000.0001) %MON dynstat_wvel_sd              =   5.7623984809305E-09
(PID.TID 0000.0001) %MON dynstat_wvel_del2            =   9.2256234891127E-14
(PID.TID 0000.0001) %MON dynstat_theta_max            =   2.0000000000000E+01
(PID.TID 0000.0001) %MON dynstat_theta_min            =   2.0000000000000E+01
(PID.TID 0000.0001) %MON dynstat_theta_mean           =   1.9999999999999E+01
(PID.TID 0000.0001) %MON dynstat_theta_sd             =   1.1972645097557E-12
(PID.TID 0000.0001) %MON dynstat_theta_del2           =   0.0000000000000E+00
(PID.TID 0000.0001) %MON dynstat_salt_max             =   3.0000000000000E+01
(PID.TID 0000.0001) %MON dynstat_salt_min             =   3.0000000000000E+01
(PID.TID 0000.0001) %MON dynstat_salt_mean            =   2.9999999999998E+01
(PID.TID 0000.0001) %MON dynstat_salt_sd              =   2.1529444893531E-12
(PID.TID 0000.0001) %MON dynstat_salt_del2            =   0.0000000000000E+00
(PID.TID 0000.0001) %MON trAdv_CFL_u_max              =   2.7912762058362E-02
(PID.TID 0000.0001) %MON trAdv_CFL_v_max              =   5.5928170877190E-02
(PID.TID 0000.0001) %MON trAdv_CFL_w_max              =   1.9210587939650E-08
(PID.TID 0000.0001) %MON advcfl_uvel_max              =   2.7999452967580E-02
(PID.TID 0000.0001) %MON advcfl_vvel_max              =   5.6041226451402E-02
(PID.TID 0000.0001) %MON advcfl_wvel_max              =   4.6361329955980E-08
(PID.TID 0000.0001) %MON advcfl_W_hf_max              =   0.0000000000000E+00
(PID.TID 0000.0001) %MON pe_b_mean                    =   9.0903128141465E-08
(PID.TID 0000.0001) %MON ke_max                       =   1.3461182449898E-03
(PID.TID 0000.0001) %MON ke_mean                      =   4.4664040339994E-05
(PID.TID 0000.0001) %MON ke_vol                       =   7.2529629296391E+15
(PID.TID 0000.0001) %MON vort_r_min                   =  -6.2863397855303E-07
(PID.TID 0000.0001) %MON vort_r_max                   =   2.8612978873118E-06
(PID.TID 0000.0001) %MON vort_a_mean                  =   8.2299999999999E-05
(PID.TID 0000.0001) %MON vort_a_sd                    =   7.1328364818229E-06
(PID.TID 0000.0001) %MON vort_p_mean                  =   8.6919888360246E-05
(PID.TID 0000.0001) %MON vort_p_sd                    =   1.7892852124998E-05
(PID.TID 0000.0001) %MON surfExpan_theta_mean         =   2.9253282546893E-20
(PID.TID 0000.0001) %MON surfExpan_salt_mean          =   4.3929744940976E-20
(PID.TID 0000.0001) // =======================================================
(PID.TID 0000.0001) // End MONITOR dynamic field statistics
(PID.TID 0000.0001) // =======================================================
 cg2d: Sum(rhs),rhsMax =   6.69909875228997E-08  7.21134948710520E-03
 cg2d: Sum(rhs),rhsMax =   7.02861535136629E-08  7.22310925418633E-03
 cg2d: Sum(rhs),rhsMax =   7.41999070415222E-08  7.23477938138610E-03
 cg2d: Sum(rhs),rhsMax =   7.89953030627677E-08  7.24657267316375E-03
 cg2d: Sum(rhs),rhsMax =   8.51322433086804E-08  7.25847139836899E-03
 cg2d: Sum(rhs),rhsMax =   9.35744281071321E-08  7.27028288570466E-03
 cg2d: Sum(rhs),rhsMax =   1.06888346019726E-07  7.28200726857515E-03
 cg2d: Sum(rhs),rhsMax =   3.30327485243385E-06  7.29364468034566E-03
 cg2d: Sum(rhs),rhsMax =   2.47151398759596E-06  7.30519527258410E-03
 cg2d: Sum(rhs),rhsMax =   2.44720732768197E-06  7.31665913677533E-03
 cg2d: Sum(rhs),rhsMax =   2.43210492760493E-06  7.32803643504876E-03
 cg2d: Sum(rhs),rhsMax =   2.42046423551932E-06  7.33947523557262E-03
 cg2d: Sum(rhs),rhsMax =   2.41060299725933E-06  7.35109210626762E-03
 cg2d: Sum(rhs),rhsMax =   2.40189728229097E-06  7.36262470453766E-03
 cg2d: Sum(rhs),rhsMax =   2.39399778833790E-06  7.37407314713634E-03
 cg2d: Sum(rhs),rhsMax =   2.38609330186108E-06  7.38543754706123E-03
(PID.TID 0000.0001)      cg2d_init_res =   4.32032966777437E-02
(PID.TID 0000.0001)      cg2d_iters(min,last) =      -1     564
(PID.TID 0000.0001)      cg2d_last_res =   9.91981882906589E-08
(PID.TID 0000.0001) // =======================================================
(PID.TID 0000.0001) // Begin MONITOR dynamic field statistics
(PID.TID 0000.0001) // =======================================================
(PID.TID 0000.0001) %MON time_tsnumber                =                   352
(PID.TID 0000.0001) %MON time_secondsf                =   1.9008000000000E+06
(PID.TID 0000.0001) %MON dynstat_eta_max              =   3.2298896004841E-02
(PID.TID 0000.0001) %MON dynstat_eta_min              =  -1.0650505492278E-02
(PID.TID 0000.0001) %MON dynstat_eta_mean             =  -1.6944554264735E-09
(PID.TID 0000.0001) %MON dynstat_eta_sd               =   9.3799086545884E-03
(PID.TID 0000.0001) %MON dynstat_eta_del2             =   1.6499418828636E-07
(PID.TID 0000.0001) %MON dynstat_uvel_max             =   2.7130253748147E-02
(PID.TID 0000.0001) %MON dynstat_uvel_min             =  -1.0970353207627E-02
(PID.TID 0000.0001) %MON dynstat_uvel_mean            =   4.0734754897575E-08
(PID.TID 0000.0001) %MON dynstat_uvel_sd              =   5.6846399708086E-03
(PID.TID 0000.0001) %MON dynstat_uvel_del2            =   2.6791745811686E-07
(PID.TID 0000.0001) %MON dynstat_vvel_max             =   5.3499637549032E-02
(PID.TID 0000.0001) %MON dynstat_vvel_min             =  -7.5245496128389E-03
(PID.TID 0000.0001) %MON dynstat_vvel_mean            =  -2.0391924945147E-08
(PID.TID 0000.0001) %MON dynstat_vvel_sd              =   7.7373790615279E-03
(PID.TID 0000.0001) %MON dynstat_vvel_del2            =   1.0190578715819E-06
(PID.TID 0000.0001) %MON dynstat_wvel_max             =   1.6330011696555E-08
(PID.TID 0000.0001) %MON dynstat_wvel_min             =  -2.0996745657176E-08
(PID.TID 0000.0001) %MON dynstat_wvel_mean            =   4.4019434605591E-22
(PID.TID 0000.0001) %MON dynstat_wvel_sd              =   5.5604899674795E-09
(PID.TID 0000.0001) %MON dynstat_wvel_del2            =   9.1093818150191E-14
(PID.TID 0000.0001) %MON dynstat_theta_max            =   2.0000000000000E+01
(PID.TID 0000.0001) %MON dynstat_theta_min            =   2.0000000000000E+01
(PID.TID 0000.0001) %MON dynstat_theta_mean           =   1.9999999999999E+01
(PID.TID 0000.0001) %MON dynstat_theta_sd             =   1.1972645097557E-12
(PID.TID 0000.0001) %MON dynstat_theta_del2           =   0.0000000000000E+00
(PID.TID 0000.0001) %MON dynstat_salt_max             =   3.0000000000000E+01
(PID.TID 0000.0001) %MON dynstat_salt_min             =   3.0000000000000E+01
(PID.TID 0000.0001) %MON dynstat_salt_mean            =   2.9999999999998E+01
(PID.TID 0000.0001) %MON dynstat_salt_sd              =   2.1529444893531E-12
(PID.TID 0000.0001) %MON dynstat_salt_del2            =   0.0000000000000E+00
(PID.TID 0000.0001) %MON trAdv_CFL_u_max              =   2.9214979494845E-02
(PID.TID 0000.0001) %MON trAdv_CFL_v_max              =   5.7674239299971E-02
(PID.TID 0000.0001) %MON trAdv_CFL_w_max              =   1.7981459590271E-08
(PID.TID 0000.0001) %MON advcfl_uvel_max              =   2.9300674047999E-02
(PID.TID 0000.0001) %MON advcfl_vvel_max              =   5.7779608552954E-02
(PID.TID 0000.0001) %MON advcfl_wvel_max              =   4.5352970619500E-08
(PID.TID 0000.0001) %MON advcfl_W_hf_max              =   0.0000000000000E+00
(PID.TID 0000.0001) %MON pe_b_mean                    =   9.0018338957207E-08
(PID.TID 0000.0001) %MON ke_max                       =   1.4308789286560E-03
(PID.TID 0000.0001) %MON ke_mean                      =   4.5883609664514E-05
(PID.TID 0000.0001) %MON ke_vol                       =   7.2529629296391E+15
(PID.TID 0000.0001) %MON vort_r_min                   =  -6.6611723609750E-07
(PID.TID 0000.0001) %MON vort_r_max                   =   2.9337530518038E-06
(PID.TID 0000.0001) %MON vort_a_mean                  =   8.2300000000000E-05
(PID.TID 0000.0001) %MON vort_a_sd                    =   7.1329823284009E-06
(PID.TID 0000.0001) %MON vort_p_mean                  =   8.6919888360246E-05
(PID.TID 0000.0001) %MON vort_p_sd                    =   1.7893875943000E-05
(PID.TID 0000.0001) %MON surfExpan_theta_mean         =   8.8559578072601E-21
(PID.TID 0000.0001) %MON surfExpan_salt_mean          =   1.3278347803126E-20
(PID.TID 0000.0001) // =======================================================
(PID.TID 0000.0001) // End MONITOR dynamic field statistics
(PID.TID 0000.0001) // =======================================================
 cg2d: Sum(rhs),rhsMax =   2.37722306335730E-06  7.39671802889542E-03
 cg2d: Sum(rhs),rhsMax =   2.36768723591539E-06  7.40791472044218E-03
 cg2d: Sum(rhs),rhsMax =   2.35942210312368E-06  7.41902767672256E-03
 cg2d: Sum(rhs),rhsMax =   2.35347850430223E-06  7.43005706808273E-03
 cg2d: Sum(rhs),rhsMax =   2.34788440111808E-06  7.44136459755570E-03
 cg2d: Sum(rhs),rhsMax =   2.34232762178453E-06  7.45264541846565E-03
 cg2d: Sum(rhs),rhsMax =   2.33718674387193E-06  7.46384484482175E-03
 cg2d: Sum(rhs),rhsMax =   2.33215671199306E-06  7.47496295225533E-03
 cg2d: Sum(rhs),rhsMax =   2.32723699027972E-06  7.48599984363284E-03
 cg2d: Sum(rhs),rhsMax =   2.32242312508263E-06  7.49695561418019E-03
 cg2d: Sum(rhs),rhsMax =   2.31770866064920E-06  7.50783035630409E-03
 cg2d: Sum(rhs),rhsMax =   2.31309505412981E-06  7.51862416159693E-03
 cg2d: Sum(rhs),rhsMax =   2.30856904028832E-06  7.52934702758008E-03
 cg2d: Sum(rhs),rhsMax =   2.30377016039590E-06  7.54040075511499E-03
 cg2d: Sum(rhs),rhsMax =   2.29905804614849E-06  7.55137562223206E-03
 cg2d: Sum(rhs),rhsMax =   2.29443509763838E-06  7.56227169625791E-03
(PID.TID 0000.0001)      cg2d_init_res =   4.11527596471746E-02
(PID.TID 0000.0001)      cg2d_iters(min,last) =      -1     567
(PID.TID 0000.0001)      cg2d_last_res =   9.91596423342583E-08
(PID.TID 0000.0001) // =======================================================
(PID.TID 0000.0001) // Begin MONITOR dynamic field statistics
(PID.TID 0000.0001) // =======================================================
(PID.TID 0000.0001) %MON time_tsnumber                =                   368
(PID.TID 0000.0001) %MON time_secondsf                =   1.9872000000000E+06
(PID.TID 0000.0001) %MON dynstat_eta_max              =   3.2752243557924E-02
(PID.TID 0000.0001) %MON dynstat_eta_min              =  -1.0732440639023E-02
(PID.TID 0000.0001) %MON dynstat_eta_mean             =  -1.6711268789692E-09
(PID.TID 0000.0001) %MON dynstat_eta_sd               =   9.3393999011985E-03
(PID.TID 0000.0001) %MON dynstat_eta_del2             =   1.6910413601773E-07
(PID.TID 0000.0001) %MON dynstat_uvel_max             =   2.8321466218670E-02
(PID.TID 0000.0001) %MON dynstat_uvel_min             =  -1.1470312812854E-02
(PID.TID 0000.0001) %MON dynstat_uvel_mean            =   9.8061556742285E-09
(PID.TID 0000.0001) %MON dynstat_uvel_sd              =   5.7933179514589E-03
(PID.TID 0000.0001) %MON dynstat_uvel_del2            =   2.7396078636820E-07
(PID.TID 0000.0001) %MON dynstat_vvel_max             =   5.5022731573310E-02
(PID.TID 0000.0001) %MON dynstat_vvel_min             =  -7.7859196353406E-03
(PID.TID 0000.0001) %MON dynstat_vvel_mean            =  -3.7391015696405E-08
(PID.TID 0000.0001) %MON dynstat_vvel_sd              =   7.8050019268387E-03
(PID.TID 0000.0001) %MON dynstat_vvel_del2            =   1.0294070105444E-06
(PID.TID 0000.0001) %MON dynstat_wvel_max             =   1.5405882603955E-08
(PID.TID 0000.0001) %MON dynstat_wvel_min             =  -2.0372432308504E-08
(PID.TID 0000.0001) %MON dynstat_wvel_mean            =  -9.1048147557042E-22
(PID.TID 0000.0001) %MON dynstat_wvel_sd              =   5.4099873135869E-09
(PID.TID 0000.0001) %MON dynstat_wvel_del2            =   8.9134536990638E-14
(PID.TID 0000.0001) %MON dynstat_theta_max            =   2.0000000000000E+01
(PID.TID 0000.0001) %MON dynstat_theta_min            =   2.0000000000000E+01
(PID.TID 0000.0001) %MON dynstat_theta_mean           =   1.9999999999999E+01
(PID.TID 0000.0001) %MON dynstat_theta_sd             =   1.1972645097557E-12
(PID.TID 0000.0001) %MON dynstat_theta_del2           =   0.0000000000000E+00
(PID.TID 0000.0001) %MON dynstat_salt_max             =   3.0000000000000E+01
(PID.TID 0000.0001) %MON dynstat_salt_min             =   3.0000000000000E+01
(PID.TID 0000.0001) %MON dynstat_salt_mean            =   2.9999999999998E+01
(PID.TID 0000.0001) %MON dynstat_salt_sd              =   2.1529444893531E-12
(PID.TID 0000.0001) %MON dynstat_salt_del2            =   0.0000000000000E+00
(PID.TID 0000.0001) %MON trAdv_CFL_u_max              =   3.0502368229416E-02
(PID.TID 0000.0001) %MON trAdv_CFL_v_max              =   5.9324500557127E-02
(PID.TID 0000.0001) %MON trAdv_CFL_w_max              =   1.6932956454774E-08
(PID.TID 0000.0001) %MON advcfl_uvel_max              =   3.0587183516164E-02
(PID.TID 0000.0001) %MON advcfl_vvel_max              =   5.9424550099175E-02
(PID.TID 0000.0001) %MON advcfl_wvel_max              =   4.4004453786369E-08
(PID.TID 0000.0001) %MON advcfl_W_hf_max              =   0.0000000000000E+00
(PID.TID 0000.0001) %MON pe_b_mean                    =   8.9242498436472E-08
(PID.TID 0000.0001) %MON ke_max                       =   1.5136434047170E-03
(PID.TID 0000.0001) %MON ke_mean                      =   4.7027647441586E-05
(PID.TID 0000.0001) %MON ke_vol                       =   7.2529629296391E+15
(PID.TID 0000.0001) %MON vort_r_min                   =  -7.0302783278585E-07
(PID.TID 0000.0001) %MON vort_r_max                   =   3.0024986413686E-06
(PID.TID 0000.0001) %MON vort_a_mean                  =   8.2299999999999E-05
(PID.TID 0000.0001) %MON vort_a_sd                    =   7.1331222116023E-06
(PID.TID 0000.0001) %MON vort_p_mean                  =   8.6919888360246E-05
(PID.TID 0000.0001) %MON vort_p_sd                    =   1.7894815517507E-05
(PID.TID 0000.0001) %MON surfExpan_theta_mean         =  -1.7966810976834E-20
(PID.TID 0000.0001) %MON surfExpan_salt_mean          =  -2.6932609020823E-20
(PID.TID 0000.0001) // =======================================================
(PID.TID 0000.0001) // End MONITOR dynamic field statistics
(PID.TID 0000.0001) // =======================================================
 cg2d: Sum(rhs),rhsMax =   2.28989278810814E-06  7.57308904908762E-03
 cg2d: Sum(rhs),rhsMax =   2.28542785133713E-06  7.58382775205601E-03
 cg2d: Sum(rhs),rhsMax =   2.28103336728964E-06  7.59448787453511E-03
 cg2d: Sum(rhs),rhsMax =   2.27671281650792E-06  7.60506948481374E-03
 cg2d: Sum(rhs),rhsMax =   2.27246021651008E-06  7.61557264933955E-03
 cg2d: Sum(rhs),rhsMax =   2.26827332623115E-06  7.62599743322781E-03
 cg2d: Sum(rhs),rhsMax =   2.26404505786031E-06  7.63668208725878E-03
 cg2d: Sum(rhs),rhsMax =   2.25985359221352E-06  7.64737791410644E-03
 cg2d: Sum(rhs),rhsMax =   2.25571747917465E-06  7.65799729739188E-03
 cg2d: Sum(rhs),rhsMax =   2.25164031910155E-06  7.66854028621388E-03
 cg2d: Sum(rhs),rhsMax =   2.24761980006753E-06  7.67900692446706E-03
 cg2d: Sum(rhs),rhsMax =   2.24364572780356E-06  7.68939725784580E-03
 cg2d: Sum(rhs),rhsMax =   2.23972491673885E-06  7.69971132732785E-03
 cg2d: Sum(rhs),rhsMax =   2.23585305916818E-06  7.70994917509544E-03
 cg2d: Sum(rhs),rhsMax =   2.23202456007925E-06  7.72011083917931E-03
 cg2d: Sum(rhs),rhsMax =   2.22822346280203E-06  7.73026243711655E-03
(PID.TID 0000.0001)      cg2d_init_res =   3.92815567839968E-02
(PID.TID 0000.0001)      cg2d_iters(min,last) =      -1     567
(PID.TID 0000.0001)      cg2d_last_res =   9.43820355289261E-08
(PID.TID 0000.0001) // =======================================================
(PID.TID 0000.0001) // Begin MONITOR dynamic field statistics
(PID.TID 0000.0001) // =======================================================
(PID.TID 0000.0001) %MON time_tsnumber                =                   384
(PID.TID 0000.0001) %MON time_secondsf                =   2.0736000000000E+06
(PID.TID 0000.0001) %MON dynstat_eta_max              =   3.3153898536947E-02
(PID.TID 0000.0001) %MON dynstat_eta_min              =  -1.0829735707611E-02
(PID.TID 0000.0001) %MON dynstat_eta_mean             =  -1.6592334106404E-09
(PID.TID 0000.0001) %MON dynstat_eta_sd               =   9.3086525647158E-03
(PID.TID 0000.0001) %MON dynstat_eta_del2             =   1.7295353685508E-07
(PID.TID 0000.0001) %MON dynstat_uvel_max             =   2.9501491358552E-02
(PID.TID 0000.0001) %MON dynstat_uvel_min             =  -1.1945276102752E-02
(PID.TID 0000.0001) %MON dynstat_uvel_mean            =  -2.1911582916662E-08
(PID.TID 0000.0001) %MON dynstat_uvel_sd              =   5.8969376966574E-03
(PID.TID 0000.0001) %MON dynstat_uvel_del2            =   2.8001365230193E-07
(PID.TID 0000.0001) %MON dynstat_vvel_max             =   5.6470171447942E-02
(PID.TID 0000.0001) %MON dynstat_vvel_min             =  -7.9932961281712E-03
(PID.TID 0000.0001) %MON dynstat_vvel_mean            =  -4.6402591975875E-08
(PID.TID 0000.0001) %MON dynstat_vvel_sd              =   7.8664076067509E-03
(PID.TID 0000.0001) %MON dynstat_vvel_del2            =   1.0395963590838E-06
(PID.TID 0000.0001) %MON dynstat_wvel_max             =   1.4623433612287E-08
(PID.TID 0000.0001) %MON dynstat_wvel_min             =  -1.9648479474708E-08
(PID.TID 0000.0001) %MON dynstat_wvel_mean            =   1.6079809179589E-21
(PID.TID 0000.0001) %MON dynstat_wvel_sd              =   5.3043494444572E-09
(PID.TID 0000.0001) %MON dynstat_wvel_del2            =   8.6979867327923E-14
(PID.TID 0000.0001) %MON dynstat_theta_max            =   2.0000000000000E+01
(PID.TID 0000.0001) %MON dynstat_theta_min            =   2.0000000000000E+01
(PID.TID 0000.0001) %MON dynstat_theta_mean           =   1.9999999999999E+01
(PID.TID 0000.0001) %MON dynstat_theta_sd             =   1.1972645097557E-12
(PID.TID 0000.0001) %MON dynstat_theta_del2           =   0.0000000000000E+00
(PID.TID 0000.0001) %MON dynstat_salt_max             =   3.0000000000000E+01
(PID.TID 0000.0001) %MON dynstat_salt_min             =   3.0000000000000E+01
(PID.TID 0000.0001) %MON dynstat_salt_mean            =   2.9999999999998E+01
(PID.TID 0000.0001) %MON dynstat_salt_sd              =   2.1529444893531E-12
(PID.TID 0000.0001) %MON dynstat_salt_del2            =   0.0000000000000E+00
(PID.TID 0000.0001) %MON trAdv_CFL_u_max              =   3.1776127610878E-02
(PID.TID 0000.0001) %MON trAdv_CFL_v_max              =   6.0891329459599E-02
(PID.TID 0000.0001) %MON trAdv_CFL_w_max              =   1.6903948578161E-08
(PID.TID 0000.0001) %MON advcfl_uvel_max              =   3.1861610667236E-02
(PID.TID 0000.0001) %MON advcfl_vvel_max              =   6.0987785163777E-02
(PID.TID 0000.0001) %MON advcfl_wvel_max              =   4.2440715665370E-08
(PID.TID 0000.0001) %MON advcfl_W_hf_max              =   0.0000000000000E+00
(PID.TID 0000.0001) %MON pe_b_mean                    =   8.8655854265483E-08
(PID.TID 0000.0001) %MON ke_max                       =   1.5941860032388E-03
(PID.TID 0000.0001) %MON ke_mean                      =   4.8109582652833E-05
(PID.TID 0000.0001) %MON ke_vol                       =   7.2529629296391E+15
(PID.TID 0000.0001) %MON vort_r_min                   =  -7.3940713706757E-07
(PID.TID 0000.0001) %MON vort_r_max                   =   3.0677623053447E-06
(PID.TID 0000.0001) %MON vort_a_mean                  =   8.2300000000000E-05
(PID.TID 0000.0001) %MON vort_a_sd                    =   7.1332569203019E-06
(PID.TID 0000.0001) %MON vort_p_mean                  =   8.6919888360246E-05
(PID.TID 0000.0001) %MON vort_p_sd                    =   1.7895686497038E-05
(PID.TID 0000.0001) %MON surfExpan_theta_mean         =   3.2411435702164E-20
(PID.TID 0000.0001) %MON surfExpan_salt_mean          =   4.8604754668513E-20
(PID.TID 0000.0001) // =======================================================
(PID.TID 0000.0001) // End MONITOR dynamic field statistics
(PID.TID 0000.0001) // =======================================================
 cg2d: Sum(rhs),rhsMax =   2.22436420126669E-06  7.74070298590017E-03
 cg2d: Sum(rhs),rhsMax =   2.22054599289569E-06  7.75106918521370E-03
 cg2d: Sum(rhs),rhsMax =   2.21677115228892E-06  7.76136105475405E-03
 cg2d: Sum(rhs),rhsMax =   2.21303514304910E-06  7.77157861713097E-03
 cg2d: Sum(rhs),rhsMax =   2.20934117688143E-06  7.78172188904335E-03
 cg2d: Sum(rhs),rhsMax =   2.20568111457785E-06  7.79179088950473E-03
 cg2d: Sum(rhs),rhsMax =   2.20205893581085E-06  7.80178563220788E-03
 cg2d: Sum(rhs),rhsMax =   2.19847634379440E-06  7.81170613256766E-03
 cg2d: Sum(rhs),rhsMax =   2.19491968691740E-06  7.82155240126781E-03
 cg2d: Sum(rhs),rhsMax =   2.19139396636682E-06  7.83135436910069E-03
 cg2d: Sum(rhs),rhsMax =   2.18760510539706E-06  7.84148786169213E-03
 cg2d: Sum(rhs),rhsMax =   2.18384595187908E-06  7.85154885802940E-03
 cg2d: Sum(rhs),rhsMax =   2.18011753800630E-06  7.86153734467540E-03
 cg2d: Sum(rhs),rhsMax =   2.17642236227493E-06  7.87145331639941E-03
 cg2d: Sum(rhs),rhsMax =   2.17275281366724E-06  7.88129676795585E-03
 cg2d: Sum(rhs),rhsMax =   2.16911155134260E-06  7.89106768926622E-03
(PID.TID 0000.0001)      cg2d_init_res =   3.76014961907898E-02
(PID.TID 0000.0001)      cg2d_iters(min,last) =      -1     566
(PID.TID 0000.0001)      cg2d_last_res =   9.72876677327706E-08
(PID.TID 0000.0001) // =======================================================
(PID.TID 0000.0001) // Begin MONITOR dynamic field statistics
(PID.TID 0000.0001) // =======================================================
(PID.TID 0000.0001) %MON time_tsnumber                =                   400
(PID.TID 0000.0001) %MON time_secondsf                =   2.1600000000000E+06
(PID.TID 0000.0001) %MON dynstat_eta_max              =   3.3513162531854E-02
(PID.TID 0000.0001) %MON dynstat_eta_min              =  -1.0931236439684E-02
(PID.TID 0000.0001) %MON dynstat_eta_mean             =  -1.6487263301779E-09
(PID.TID 0000.0001) %MON dynstat_eta_sd               =   9.2901864147596E-03
(PID.TID 0000.0001) %MON dynstat_eta_del2             =   1.7657753109862E-07
(PID.TID 0000.0001) %MON dynstat_uvel_max             =   3.0669237933736E-02
(PID.TID 0000.0001) %MON dynstat_uvel_min             =  -1.2399655052639E-02
(PID.TID 0000.0001) %MON dynstat_uvel_mean            =  -5.0958644494515E-08
(PID.TID 0000.0001) %MON dynstat_uvel_sd              =   5.9956532651895E-03
(PID.TID 0000.0001) %MON dynstat_uvel_del2            =   2.8590944466394E-07
(PID.TID 0000.0001) %MON dynstat_vvel_max             =   5.7841231512291E-02
(PID.TID 0000.0001) %MON dynstat_vvel_min             =  -8.1487242002480E-03
(PID.TID 0000.0001) %MON dynstat_vvel_mean            =  -4.7800532370368E-08
(PID.TID 0000.0001) %MON dynstat_vvel_sd              =   7.9229559770379E-03
(PID.TID 0000.0001) %MON dynstat_vvel_del2            =   1.0498711520821E-06
(PID.TID 0000.0001) %MON dynstat_wvel_max             =   1.5672260855208E-08
(PID.TID 0000.0001) %MON dynstat_wvel_min             =  -1.8856307348469E-08
(PID.TID 0000.0001) %MON dynstat_wvel_mean            =  -1.1610924580988E-21
(PID.TID 0000.0001) %MON dynstat_wvel_sd              =   5.2285467900122E-09
(PID.TID 0000.0001) %MON dynstat_wvel_del2            =   8.5727498500500E-14
(PID.TID 0000.0001) %MON dynstat_theta_max            =   2.0000000000000E+01
(PID.TID 0000.0001) %MON dynstat_theta_min            =   2.0000000000000E+01
(PID.TID 0000.0001) %MON dynstat_theta_mean           =   1.9999999999999E+01
(PID.TID 0000.0001) %MON dynstat_theta_sd             =   1.1972645097557E-12
(PID.TID 0000.0001) %MON dynstat_theta_del2           =   0.0000000000000E+00
(PID.TID 0000.0001) %MON dynstat_salt_max             =   3.0000000000000E+01
(PID.TID 0000.0001) %MON dynstat_salt_min             =   3.0000000000000E+01
(PID.TID 0000.0001) %MON dynstat_salt_mean            =   2.9999999999998E+01
(PID.TID 0000.0001) %MON dynstat_salt_sd              =   2.1529444893531E-12
(PID.TID 0000.0001) %MON dynstat_salt_del2            =   0.0000000000000E+00
(PID.TID 0000.0001) %MON trAdv_CFL_u_max              =   3.3037707593279E-02
(PID.TID 0000.0001) %MON trAdv_CFL_v_max              =   6.2377155459194E-02
(PID.TID 0000.0001) %MON trAdv_CFL_w_max              =   1.8151388721364E-08
(PID.TID 0000.0001) %MON advcfl_uvel_max              =   3.3122776968435E-02
(PID.TID 0000.0001) %MON advcfl_vvel_max              =   6.2468530033274E-02
(PID.TID 0000.0001) %MON advcfl_wvel_max              =   4.0729623872694E-08
(PID.TID 0000.0001) %MON advcfl_W_hf_max              =   0.0000000000000E+00
(PID.TID 0000.0001) %MON pe_b_mean                    =   8.8304458948561E-08
(PID.TID 0000.0001) %MON ke_max                       =   1.6724934633540E-03
(PID.TID 0000.0001) %MON ke_mean                      =   4.9138354150586E-05
(PID.TID 0000.0001) %MON ke_vol                       =   7.2529629296391E+15
(PID.TID 0000.0001) %MON vort_r_min                   =  -7.7528122904084E-07
(PID.TID 0000.0001) %MON vort_r_max                   =   3.1296957511323E-06
(PID.TID 0000.0001) %MON vort_a_mean                  =   8.2300000000000E-05
(PID.TID 0000.0001) %MON vort_a_sd                    =   7.1333870086006E-06
(PID.TID 0000.0001) %MON vort_p_mean                  =   8.6919888360246E-05
(PID.TID 0000.0001) %MON vort_p_sd                    =   1.7896502853217E-05
(PID.TID 0000.0001) %MON surfExpan_theta_mean         =  -2.3210598329013E-20
(PID.TID 0000.0001) %MON surfExpan_salt_mean          =  -3.4801591768270E-20
(PID.TID 0000.0001) // =======================================================
(PID.TID 0000.0001) // End MONITOR dynamic field statistics
(PID.TID 0000.0001) // =======================================================
 cg2d: Sum(rhs),rhsMax =   2.16549915457200E-06  7.90076607177235E-03
 cg2d: Sum(rhs),rhsMax =   2.16191160871265E-06  7.91039190254119E-03
 cg2d: Sum(rhs),rhsMax =   2.15834758173460E-06  7.91994516969631E-03
 cg2d: Sum(rhs),rhsMax =   2.15480743832354E-06  7.92942585746511E-03
 cg2d: Sum(rhs),rhsMax =   2.15122811332048E-06  7.93905402827591E-03
 cg2d: Sum(rhs),rhsMax =   2.14760870198387E-06  7.94883067888072E-03
 cg2d: Sum(rhs),rhsMax =   2.14400930250228E-06  7.95853637658816E-03
 cg2d: Sum(rhs),rhsMax =   2.14043168684196E-06  7.96817109260708E-03
 cg2d: Sum(rhs),rhsMax =   2.13686767218217E-06  7.97773479704420E-03
 cg2d: Sum(rhs),rhsMax =   2.13332104225319E-06  7.98722745844667E-03
 cg2d: Sum(rhs),rhsMax =   2.12979151531165E-06  7.99664904409064E-03
 cg2d: Sum(rhs),rhsMax =   2.12606308531982E-06  8.00599951712419E-03
 cg2d: Sum(rhs),rhsMax =   2.12234775296728E-06  8.01527884943233E-03
 cg2d: Sum(rhs),rhsMax =   2.11864353461856E-06  8.02448699761755E-03
 cg2d: Sum(rhs),rhsMax =   2.11494593528767E-06  8.03362392740885E-03
 cg2d: Sum(rhs),rhsMax =   2.11120845938079E-06  8.04287959534725E-03
(PID.TID 0000.0001)      cg2d_init_res =   3.61377749719465E-02
(PID.TID 0000.0001)      cg2d_iters(min,last) =      -1     565
(PID.TID 0000.0001)      cg2d_last_res =   9.71304975163249E-08
(PID.TID 0000.0001) // =======================================================
(PID.TID 0000.0001) // Begin MONITOR dynamic field statistics
(PID.TID 0000.0001) // =======================================================
(PID.TID 0000.0001) %MON time_tsnumber                =                   416
(PID.TID 0000.0001) %MON time_secondsf                =   2.2464000000000E+06
(PID.TID 0000.0001) %MON dynstat_eta_max              =   3.3851504711438E-02
(PID.TID 0000.0001) %MON dynstat_eta_min              =  -1.1026274690657E-02
(PID.TID 0000.0001) %MON dynstat_eta_mean             =  -1.6352748169348E-09
(PID.TID 0000.0001) %MON dynstat_eta_sd               =   9.2846127794943E-03
(PID.TID 0000.0001) %MON dynstat_eta_del2             =   1.8000375415713E-07
(PID.TID 0000.0001) %MON dynstat_uvel_max             =   3.1823606345749E-02
(PID.TID 0000.0001) %MON dynstat_uvel_min             =  -1.2832692832383E-02
(PID.TID 0000.0001) %MON dynstat_uvel_mean            =  -7.4368933491307E-08
(PID.TID 0000.0001) %MON dynstat_uvel_sd              =   6.0894060906594E-03
(PID.TID 0000.0001) %MON dynstat_uvel_del2            =   2.9152485729459E-07
(PID.TID 0000.0001) %MON dynstat_vvel_max             =   5.9138512160915E-02
(PID.TID 0000.0001) %MON dynstat_vvel_min             =  -8.2667443034552E-03
(PID.TID 0000.0001) %MON dynstat_vvel_mean            =  -4.2515896613627E-08
(PID.TID 0000.0001) %MON dynstat_vvel_sd              =   7.9755496581712E-03
(PID.TID 0000.0001) %MON dynstat_vvel_del2            =   1.0603812539445E-06
(PID.TID 0000.0001) %MON dynstat_wvel_max             =   1.6411128421314E-08
(PID.TID 0000.0001) %MON dynstat_wvel_min             =  -1.8044494921342E-08
(PID.TID 0000.0001) %MON dynstat_wvel_mean            =   1.0392511916656E-21
(PID.TID 0000.0001) %MON dynstat_wvel_sd              =   5.1637297288557E-09
(PID.TID 0000.0001) %MON dynstat_wvel_del2            =   8.4266429545308E-14
(PID.TID 0000.0001) %MON dynstat_theta_max            =   2.0000000000000E+01
(PID.TID 0000.0001) %MON dynstat_theta_min            =   2.0000000000000E+01
(PID.TID 0000.0001) %MON dynstat_theta_mean           =   1.9999999999999E+01
(PID.TID 0000.0001) %MON dynstat_theta_sd             =   1.1972645097557E-12
(PID.TID 0000.0001) %MON dynstat_theta_del2           =   0.0000000000000E+00
(PID.TID 0000.0001) %MON dynstat_salt_max             =   3.0000000000000E+01
(PID.TID 0000.0001) %MON dynstat_salt_min             =   3.0000000000000E+01
(PID.TID 0000.0001) %MON dynstat_salt_mean            =   2.9999999999998E+01
(PID.TID 0000.0001) %MON dynstat_salt_sd              =   2.1529444893531E-12
(PID.TID 0000.0001) %MON dynstat_salt_del2            =   0.0000000000000E+00
(PID.TID 0000.0001) %MON trAdv_CFL_u_max              =   3.4285094867515E-02
(PID.TID 0000.0001) %MON trAdv_CFL_v_max              =   6.3782638917684E-02
(PID.TID 0000.0001) %MON trAdv_CFL_w_max              =   1.9007139642208E-08
(PID.TID 0000.0001) %MON advcfl_uvel_max              =   3.4369494853408E-02
(PID.TID 0000.0001) %MON advcfl_vvel_max              =   6.3869593133788E-02
(PID.TID 0000.0001) %MON advcfl_wvel_max              =   3.8976109030098E-08
(PID.TID 0000.0001) %MON advcfl_W_hf_max              =   0.0000000000000E+00
(PID.TID 0000.0001) %MON pe_b_mean                    =   8.8198534441971E-08
(PID.TID 0000.0001) %MON ke_max                       =   1.7484388372527E-03
(PID.TID 0000.0001) %MON ke_mean                      =   5.0118506859606E-05
(PID.TID 0000.0001) %MON ke_vol                       =   7.2529629296391E+15
(PID.TID 0000.0001) %MON vort_r_min                   =  -8.1063449915853E-07
(PID.TID 0000.0001) %MON vort_r_max                   =   3.1886069805580E-06
(PID.TID 0000.0001) %MON vort_a_mean                  =   8.2300000000001E-05
(PID.TID 0000.0001) %MON vort_a_sd                    =   7.1335127989343E-06
(PID.TID 0000.0001) %MON vort_p_mean                  =   8.6919888360247E-05
(PID.TID 0000.0001) %MON vort_p_sd                    =   1.7897276194895E-05
(PID.TID 0000.0001) %MON surfExpan_theta_mean         =   2.0923289980545E-20
(PID.TID 0000.0001) %MON surfExpan_salt_mean          =   3.1399055181902E-20
(PID.TID 0000.0001) // =======================================================
(PID.TID 0000.0001) // End MONITOR dynamic field statistics
(PID.TID 0000.0001) // =======================================================
 cg2d: Sum(rhs),rhsMax =   2.10740740303958E-06  8.05231999693392E-03
 cg2d: Sum(rhs),rhsMax =   2.10361494787890E-06  8.06169072870059E-03
 cg2d: Sum(rhs),rhsMax =   2.09982815750111E-06  8.07099174374766E-03
 cg2d: Sum(rhs),rhsMax =   2.09604813817404E-06  8.08022298872396E-03
 cg2d: Sum(rhs),rhsMax =   2.09227948024145E-06  8.08938441469829E-03
 cg2d: Sum(rhs),rhsMax =   2.08853127867462E-06  8.09847596617048E-03
 cg2d: Sum(rhs),rhsMax =   2.08454732885874E-06  8.10749759145887E-03
 cg2d: Sum(rhs),rhsMax =   2.08065048157985E-06  8.11644923637566E-03
 cg2d: Sum(rhs),rhsMax =   2.07670790148586E-06  8.12533084252836E-03
 cg2d: Sum(rhs),rhsMax =   2.06798612585601E-06  8.13414234609685E-03
 cg2d: Sum(rhs),rhsMax =   2.06352368547526E-06  8.14288371972249E-03
 cg2d: Sum(rhs),rhsMax =   2.05561579286542E-06  8.15191478271203E-03
 cg2d: Sum(rhs),rhsMax =   2.03908093157103E-06  8.16096765173695E-03
 cg2d: Sum(rhs),rhsMax =   2.03362167409959E-06  8.16995185274272E-03
 cg2d: Sum(rhs),rhsMax =   2.02795745585932E-06  8.17886736039685E-03
 cg2d: Sum(rhs),rhsMax =   2.02262178392205E-06  8.18771407020202E-03
(PID.TID 0000.0001)      cg2d_init_res =   3.48808471051003E-02
(PID.TID 0000.0001)      cg2d_iters(min,last) =      -1     564
(PID.TID 0000.0001)      cg2d_last_res =   9.66947150201546E-08
(PID.TID 0000.0001) // =======================================================
(PID.TID 0000.0001) // Begin MONITOR dynamic field statistics
(PID.TID 0000.0001) // =======================================================
(PID.TID 0000.0001) %MON time_tsnumber                =                   432
(PID.TID 0000.0001) %MON time_secondsf                =   2.3328000000000E+06
(PID.TID 0000.0001) %MON dynstat_eta_max              =   3.4165571720736E-02
(PID.TID 0000.0001) %MON dynstat_eta_min              =  -1.1105720693568E-02
(PID.TID 0000.0001) %MON dynstat_eta_mean             =  -1.5932207503483E-09
(PID.TID 0000.0001) %MON dynstat_eta_sd               =   9.2906554816572E-03
(PID.TID 0000.0001) %MON dynstat_eta_del2             =   1.8325264620473E-07
(PID.TID 0000.0001) %MON dynstat_uvel_max             =   3.2964877860547E-02
(PID.TID 0000.0001) %MON dynstat_uvel_min             =  -1.3249261430256E-02
(PID.TID 0000.0001) %MON dynstat_uvel_mean            =  -8.9900017754164E-08
(PID.TID 0000.0001) %MON dynstat_uvel_sd              =   6.1779868517099E-03
(PID.TID 0000.0001) %MON dynstat_uvel_del2            =   2.9680675494393E-07
(PID.TID 0000.0001) %MON dynstat_vvel_max             =   6.0363808217615E-02
(PID.TID 0000.0001) %MON dynstat_vvel_min             =  -8.3473958924618E-03
(PID.TID 0000.0001) %MON dynstat_vvel_mean            =  -3.1926393078279E-08
(PID.TID 0000.0001) %MON dynstat_vvel_sd              =   8.0246826967440E-03
(PID.TID 0000.0001) %MON dynstat_vvel_del2            =   1.0711806400472E-06
(PID.TID 0000.0001) %MON dynstat_wvel_max             =   1.6778495108592E-08
(PID.TID 0000.0001) %MON dynstat_wvel_min             =  -1.7236044935416E-08
(PID.TID 0000.0001) %MON dynstat_wvel_mean            =   1.0538848383296E-22
(PID.TID 0000.0001) %MON dynstat_wvel_sd              =   5.0926965954174E-09
(PID.TID 0000.0001) %MON dynstat_wvel_del2            =   8.2729574422388E-14
(PID.TID 0000.0001) %MON dynstat_theta_max            =   2.0000000000000E+01
(PID.TID 0000.0001) %MON dynstat_theta_min            =   2.0000000000000E+01
(PID.TID 0000.0001) %MON dynstat_theta_mean           =   1.9999999999999E+01
(PID.TID 0000.0001) %MON dynstat_theta_sd             =   1.1972645097557E-12
(PID.TID 0000.0001) %MON dynstat_theta_del2           =   0.0000000000000E+00
(PID.TID 0000.0001) %MON dynstat_salt_max             =   3.0000000000000E+01
(PID.TID 0000.0001) %MON dynstat_salt_min             =   3.0000000000000E+01
(PID.TID 0000.0001) %MON dynstat_salt_mean            =   2.9999999999998E+01
(PID.TID 0000.0001) %MON dynstat_salt_sd              =   2.1529444893531E-12
(PID.TID 0000.0001) %MON dynstat_salt_del2            =   0.0000000000000E+00
(PID.TID 0000.0001) %MON trAdv_CFL_u_max              =   3.5519800944523E-02
(PID.TID 0000.0001) %MON trAdv_CFL_v_max              =   6.5113969326956E-02
(PID.TID 0000.0001) %MON trAdv_CFL_w_max              =   1.9430310809847E-08
(PID.TID 0000.0001) %MON advcfl_uvel_max              =   3.5602068089391E-02
(PID.TID 0000.0001) %MON advcfl_vvel_max              =   6.5192912875024E-02
(PID.TID 0000.0001) %MON advcfl_wvel_max              =   3.7229857060499E-08
(PID.TID 0000.0001) %MON advcfl_W_hf_max              =   0.0000000000000E+00
(PID.TID 0000.0001) %MON pe_b_mean                    =   8.8313376260319E-08
(PID.TID 0000.0001) %MON ke_max                       =   1.8217542019416E-03
(PID.TID 0000.0001) %MON ke_mean                      =   5.1050689297093E-05
(PID.TID 0000.0001) %MON ke_vol                       =   7.2529629296391E+15
(PID.TID 0000.0001) %MON vort_r_min                   =  -8.4543520839206E-07
(PID.TID 0000.0001) %MON vort_r_max                   =   3.2443944822990E-06
(PID.TID 0000.0001) %MON vort_a_mean                  =   8.2300000000001E-05
(PID.TID 0000.0001) %MON vort_a_sd                    =   7.1336344125339E-06
(PID.TID 0000.0001) %MON vort_p_mean                  =   8.6919888360248E-05
(PID.TID 0000.0001) %MON vort_p_sd                    =   1.7898015295663E-05
(PID.TID 0000.0001) %MON surfExpan_theta_mean         =   2.2801011818551E-21
(PID.TID 0000.0001) %MON surfExpan_salt_mean          =   3.4173937172498E-21
(PID.TID 0000.0001) // =======================================================
(PID.TID 0000.0001) // End MONITOR dynamic field statistics
(PID.TID 0000.0001) // =======================================================
 cg2d: Sum(rhs),rhsMax =   2.01709630521033E-06  8.19649192365969E-03
 cg2d: Sum(rhs),rhsMax =   2.01134170043672E-06  8.20520085562929E-03
 cg2d: Sum(rhs),rhsMax =   2.00529990510533E-06  8.21384079658052E-03
 cg2d: Sum(rhs),rhsMax =   1.99891048466815E-06  8.22241167683297E-03
 cg2d: Sum(rhs),rhsMax =   1.99208242178915E-06  8.23091342805589E-03
 cg2d: Sum(rhs),rhsMax =   1.98469744445116E-06  8.23934597908298E-03
 cg2d: Sum(rhs),rhsMax =   1.97753482203758E-06  8.24770926225081E-03
 cg2d: Sum(rhs),rhsMax =   1.96950791178305E-06  8.25627489181781E-03
 cg2d: Sum(rhs),rhsMax =   1.96032301067080E-06  8.26495686479076E-03
 cg2d: Sum(rhs),rhsMax =   1.94949362330131E-06  8.27357104069367E-03
 cg2d: Sum(rhs),rhsMax =   1.93601352392256E-06  8.28211734456376E-03
 cg2d: Sum(rhs),rhsMax =   1.91756743541348E-06  8.29059569961689E-03
 cg2d: Sum(rhs),rhsMax =  -1.29710661198046E-06  8.29900603269358E-03
 cg2d: Sum(rhs),rhsMax =  -2.04446631483883E-06  8.30734825473848E-03
 cg2d: Sum(rhs),rhsMax =  -3.09789324883653E-07  8.31562230938741E-03
 cg2d: Sum(rhs),rhsMax =  -2.86942876032842E-07  8.32382810068887E-03
(PID.TID 0000.0001)      cg2d_init_res =   3.38163783827487E-02
(PID.TID 0000.0001)      cg2d_iters(min,last) =      -1     565
(PID.TID 0000.0001)      cg2d_last_res =   9.27391109706917E-08
(PID.TID 0000.0001) // =======================================================
(PID.TID 0000.0001) // Begin MONITOR dynamic field statistics
(PID.TID 0000.0001) // =======================================================
(PID.TID 0000.0001) %MON time_tsnumber                =                   448
(PID.TID 0000.0001) %MON time_secondsf                =   2.4192000000000E+06
(PID.TID 0000.0001) %MON dynstat_eta_max              =   3.4482073720737E-02
(PID.TID 0000.0001) %MON dynstat_eta_min              =  -1.1162803257333E-02
(PID.TID 0000.0001) %MON dynstat_eta_mean             =   2.1870050007186E-10
(PID.TID 0000.0001) %MON dynstat_eta_sd               =   9.3053822196057E-03
(PID.TID 0000.0001) %MON dynstat_eta_del2             =   1.8633822441255E-07
(PID.TID 0000.0001) %MON dynstat_uvel_max             =   3.4093842732763E-02
(PID.TID 0000.0001) %MON dynstat_uvel_min             =  -1.3651716593685E-02
(PID.TID 0000.0001) %MON dynstat_uvel_mean            =  -9.6191341639731E-08
(PID.TID 0000.0001) %MON dynstat_uvel_sd              =   6.2611513990679E-03
(PID.TID 0000.0001) %MON dynstat_uvel_del2            =   3.0177624663152E-07
(PID.TID 0000.0001) %MON dynstat_vvel_max             =   6.1523133908549E-02
(PID.TID 0000.0001) %MON dynstat_vvel_min             =  -8.4037896445173E-03
(PID.TID 0000.0001) %MON dynstat_vvel_mean            =  -1.7715096164907E-08
(PID.TID 0000.0001) %MON dynstat_vvel_sd              =   8.0704753023502E-03
(PID.TID 0000.0001) %MON dynstat_vvel_del2            =   1.0822305497526E-06
(PID.TID 0000.0001) %MON dynstat_wvel_max             =   1.6775339610176E-08
(PID.TID 0000.0001) %MON dynstat_wvel_min             =  -1.6476196532603E-08
(PID.TID 0000.0001) %MON dynstat_wvel_mean            =  -1.4914340210322E-22
(PID.TID 0000.0001) %MON dynstat_wvel_sd              =   5.0042081937668E-09
(PID.TID 0000.0001) %MON dynstat_wvel_del2            =   8.1106578644015E-14
(PID.TID 0000.0001) %MON dynstat_theta_max            =   2.0000000000000E+01
(PID.TID 0000.0001) %MON dynstat_theta_min            =   2.0000000000000E+01
(PID.TID 0000.0001) %MON dynstat_theta_mean           =   1.9999999999999E+01
(PID.TID 0000.0001) %MON dynstat_theta_sd             =   1.1972645097557E-12
(PID.TID 0000.0001) %MON dynstat_theta_del2           =   0.0000000000000E+00
(PID.TID 0000.0001) %MON dynstat_salt_max             =   3.0000000000000E+01
(PID.TID 0000.0001) %MON dynstat_salt_min             =   3.0000000000000E+01
(PID.TID 0000.0001) %MON dynstat_salt_mean            =   2.9999999999998E+01
(PID.TID 0000.0001) %MON dynstat_salt_sd              =   2.1529444893531E-12
(PID.TID 0000.0001) %MON dynstat_salt_del2            =   0.0000000000000E+00
(PID.TID 0000.0001) %MON trAdv_CFL_u_max              =   3.6739558496530E-02
(PID.TID 0000.0001) %MON trAdv_CFL_v_max              =   6.6369438511254E-02
(PID.TID 0000.0001) %MON trAdv_CFL_w_max              =   1.9442126666105E-08
(PID.TID 0000.0001) %MON advcfl_uvel_max              =   3.6821350151384E-02
(PID.TID 0000.0001) %MON advcfl_vvel_max              =   6.6444984621233E-02
(PID.TID 0000.0001) %MON advcfl_wvel_max              =   3.6234733557981E-08
(PID.TID 0000.0001) %MON advcfl_W_hf_max              =   0.0000000000000E+00
(PID.TID 0000.0001) %MON pe_b_mean                    =   8.8593571500711E-08
(PID.TID 0000.0001) %MON ke_max                       =   1.8920112079325E-03
(PID.TID 0000.0001) %MON ke_mean                      =   5.1932469384066E-05
(PID.TID 0000.0001) %MON ke_vol                       =   7.2529629296391E+15
(PID.TID 0000.0001) %MON vort_r_min                   =  -8.7973681262880E-07
(PID.TID 0000.0001) %MON vort_r_max                   =   3.2968094817663E-06
(PID.TID 0000.0001) %MON vort_a_mean                  =   8.2300000000001E-05
(PID.TID 0000.0001) %MON vort_a_sd                    =   7.1337518090971E-06
(PID.TID 0000.0001) %MON vort_p_mean                  =   8.6919888360247E-05
(PID.TID 0000.0001) %MON vort_p_sd                    =   1.7898725860378E-05
(PID.TID 0000.0001) %MON surfExpan_theta_mean         =  -2.8250666544173E-21
(PID.TID 0000.0001) %MON surfExpan_salt_mean          =  -4.2396993444581E-21
(PID.TID 0000.0001) // =======================================================
(PID.TID 0000.0001) // End MONITOR dynamic field statistics
(PID.TID 0000.0001) // =======================================================
 cg2d: Sum(rhs),rhsMax =  -2.72383801055986E-07  8.33196556915989E-03
 cg2d: Sum(rhs),rhsMax =  -2.61653000014836E-07  8.34003462784658E-03
 cg2d: Sum(rhs),rhsMax =  -2.53127910132545E-07  8.34803520553928E-03
 cg2d: Sum(rhs),rhsMax =  -2.46043363670914E-07  8.35596722434168E-03
 cg2d: Sum(rhs),rhsMax =  -2.39965787152477E-07  8.36418895482843E-03
 cg2d: Sum(rhs),rhsMax =  -2.34654636430132E-07  8.37244778353784E-03
 cg2d: Sum(rhs),rhsMax =  -2.29969700180424E-07  8.38063953194370E-03
 cg2d: Sum(rhs),rhsMax =  -2.25276551918049E-07  8.38876412341358E-03
 cg2d: Sum(rhs),rhsMax =  -2.08844964476665E-07  8.39682145985695E-03
 cg2d: Sum(rhs),rhsMax =  -2.02534670323135E-07  8.40481151784371E-03
 cg2d: Sum(rhs),rhsMax =  -1.98566010174359E-07  8.41273415915897E-03
 cg2d: Sum(rhs),rhsMax =  -1.95486677449785E-07  8.42058934564908E-03
 cg2d: Sum(rhs),rhsMax =  -1.92521261750331E-07  8.42837697797565E-03
 cg2d: Sum(rhs),rhsMax =  -1.89691517400031E-07  8.43609699535730E-03
 cg2d: Sum(rhs),rhsMax =  -1.86989546470048E-07  8.44374931680892E-03
 cg2d: Sum(rhs),rhsMax =  -1.84404240929220E-07  8.45133387063273E-03
(PID.TID 0000.0001)      cg2d_init_res =   3.29024177533176E-02
(PID.TID 0000.0001)      cg2d_iters(min,last) =      -1     565
(PID.TID 0000.0001)      cg2d_last_res =   9.35628907136947E-08
(PID.TID 0000.0001) // =======================================================
(PID.TID 0000.0001) // Begin MONITOR dynamic field statistics
(PID.TID 0000.0001) // =======================================================
(PID.TID 0000.0001) %MON time_tsnumber                =                   464
(PID.TID 0000.0001) %MON time_secondsf                =   2.5056000000000E+06
(PID.TID 0000.0001) %MON dynstat_eta_max              =   3.4782143538652E-02
(PID.TID 0000.0001) %MON dynstat_eta_min              =  -1.1193651525794E-02
(PID.TID 0000.0001) %MON dynstat_eta_mean             =   1.4829363086593E-10
(PID.TID 0000.0001) %MON dynstat_eta_sd               =   9.3246485168270E-03
(PID.TID 0000.0001) %MON dynstat_eta_del2             =   1.8926905074557E-07
(PID.TID 0000.0001) %MON dynstat_uvel_max             =   3.5206511875265E-02
(PID.TID 0000.0001) %MON dynstat_uvel_min             =  -1.4045929357539E-02
(PID.TID 0000.0001) %MON dynstat_uvel_mean            =  -9.2839804176928E-08
(PID.TID 0000.0001) %MON dynstat_uvel_sd              =   6.3387489911500E-03
(PID.TID 0000.0001) %MON dynstat_uvel_del2            =   3.0651275027389E-07
(PID.TID 0000.0001) %MON dynstat_vvel_max             =   6.2605857330619E-02
(PID.TID 0000.0001) %MON dynstat_vvel_min             =  -8.4442906932026E-03
(PID.TID 0000.0001) %MON dynstat_vvel_mean            =  -1.7112429503401E-09
(PID.TID 0000.0001) %MON dynstat_vvel_sd              =   8.1127142056071E-03
(PID.TID 0000.0001) %MON dynstat_vvel_del2            =   1.0934082519599E-06
(PID.TID 0000.0001) %MON dynstat_wvel_max             =   1.6439555699471E-08
(PID.TID 0000.0001) %MON dynstat_wvel_min             =  -1.5779926179675E-08
(PID.TID 0000.0001) %MON dynstat_wvel_mean            =   3.0125893200218E-21
(PID.TID 0000.0001) %MON dynstat_wvel_sd              =   4.8951956973173E-09
(PID.TID 0000.0001) %MON dynstat_wvel_del2            =   8.0141446790503E-14
(PID.TID 0000.0001) %MON dynstat_theta_max            =   2.0000000000000E+01
(PID.TID 0000.0001) %MON dynstat_theta_min            =   2.0000000000000E+01
(PID.TID 0000.0001) %MON dynstat_theta_mean           =   1.9999999999999E+01
(PID.TID 0000.0001) %MON dynstat_theta_sd             =   1.1972645097557E-12
(PID.TID 0000.0001) %MON dynstat_theta_del2           =   0.0000000000000E+00
(PID.TID 0000.0001) %MON dynstat_salt_max             =   3.0000000000000E+01
(PID.TID 0000.0001) %MON dynstat_salt_min             =   3.0000000000000E+01
(PID.TID 0000.0001) %MON dynstat_salt_mean            =   2.9999999999998E+01
(PID.TID 0000.0001) %MON dynstat_salt_sd              =   2.1529444893531E-12
(PID.TID 0000.0001) %MON dynstat_salt_del2            =   0.0000000000000E+00
(PID.TID 0000.0001) %MON trAdv_CFL_u_max              =   3.7941692417128E-02
(PID.TID 0000.0001) %MON trAdv_CFL_v_max              =   6.7541698345475E-02
(PID.TID 0000.0001) %MON trAdv_CFL_w_max              =   1.9039769946967E-08
(PID.TID 0000.0001) %MON advcfl_uvel_max              =   3.8023032825286E-02
(PID.TID 0000.0001) %MON advcfl_vvel_max              =   6.7614325917068E-02
(PID.TID 0000.0001) %MON advcfl_wvel_max              =   3.5509440310858E-08
(PID.TID 0000.0001) %MON advcfl_W_hf_max              =   0.0000000000000E+00
(PID.TID 0000.0001) %MON pe_b_mean                    =   8.8960807801555E-08
(PID.TID 0000.0001) %MON ke_max                       =   1.9594427281120E-03
(PID.TID 0000.0001) %MON ke_mean                      =   5.2759371405481E-05
(PID.TID 0000.0001) %MON ke_vol                       =   7.2529629296391E+15
(PID.TID 0000.0001) %MON vort_r_min                   =  -9.1350203830475E-07
(PID.TID 0000.0001) %MON vort_r_max                   =   3.3461501080443E-06
(PID.TID 0000.0001) %MON vort_a_mean                  =   8.2300000000001E-05
(PID.TID 0000.0001) %MON vort_a_sd                    =   7.1338648236898E-06
(PID.TID 0000.0001) %MON vort_p_mean                  =   8.6919888360247E-05
(PID.TID 0000.0001) %MON vort_p_sd                    =   1.7899410540321E-05
(PID.TID 0000.0001) %MON surfExpan_theta_mean         =   6.0389984144825E-20
(PID.TID 0000.0001) %MON surfExpan_salt_mean          =   9.0579112712002E-20
(PID.TID 0000.0001) // =======================================================
(PID.TID 0000.0001) // End MONITOR dynamic field statistics
(PID.TID 0000.0001) // =======================================================
 cg2d: Sum(rhs),rhsMax =  -1.81923368995987E-07  8.45885058165901E-03
 cg2d: Sum(rhs),rhsMax =  -1.79536021823606E-07  8.46644075539454E-03
 cg2d: Sum(rhs),rhsMax =  -1.77229584508165E-07  8.47429203863019E-03
 cg2d: Sum(rhs),rhsMax =  -1.74999496000208E-07  8.48207699876675E-03
 cg2d: Sum(rhs),rhsMax =  -1.72839886476012E-07  8.48979555902451E-03
 cg2d: Sum(rhs),rhsMax =  -1.70746673676739E-07  8.49744765005933E-03
 cg2d: Sum(rhs),rhsMax =  -1.68710603442451E-07  8.50503319725596E-03
 cg2d: Sum(rhs),rhsMax =  -1.66729085596812E-07  8.51255213314696E-03
 cg2d: Sum(rhs),rhsMax =  -1.64797897042254E-07  8.52000438555448E-03
 cg2d: Sum(rhs),rhsMax =  -1.62911845692434E-07  8.52738988900573E-03
 cg2d: Sum(rhs),rhsMax =  -1.61064641505948E-07  8.53470857397997E-03
 cg2d: Sum(rhs),rhsMax =  -1.59258093046510E-07  8.54196037713757E-03
 cg2d: Sum(rhs),rhsMax =  -1.57490389673942E-07  8.54914523182039E-03
 cg2d: Sum(rhs),rhsMax =  -1.55756507604771E-07  8.55626307697446E-03
 cg2d: Sum(rhs),rhsMax =  -1.54052340183009E-07  8.56331384899457E-03
 cg2d: Sum(rhs),rhsMax =  -1.52376040027033E-07  8.57036844773059E-03
(PID.TID 0000.0001)      cg2d_init_res =   3.20873736486069E-02
(PID.TID 0000.0001)      cg2d_iters(min,last) =      -1     565
(PID.TID 0000.0001)      cg2d_last_res =   9.50539591675747E-08
(PID.TID 0000.0001) // =======================================================
(PID.TID 0000.0001) // Begin MONITOR dynamic field statistics
(PID.TID 0000.0001) // =======================================================
(PID.TID 0000.0001) %MON time_tsnumber                =                   480
(PID.TID 0000.0001) %MON time_secondsf                =   2.5920000000000E+06
(PID.TID 0000.0001) %MON dynstat_eta_max              =   3.5077437144853E-02
(PID.TID 0000.0001) %MON dynstat_eta_min              =  -1.1197501395757E-02
(PID.TID 0000.0001) %MON dynstat_eta_mean             =   1.2458768332035E-10
(PID.TID 0000.0001) %MON dynstat_eta_sd               =   9.3437060139204E-03
(PID.TID 0000.0001) %MON dynstat_eta_del2             =   1.9204922649984E-07
(PID.TID 0000.0001) %MON dynstat_uvel_max             =   3.6299099930271E-02
(PID.TID 0000.0001) %MON dynstat_uvel_min             =  -1.4432258219409E-02
(PID.TID 0000.0001) %MON dynstat_uvel_mean            =  -8.0390394946173E-08
(PID.TID 0000.0001) %MON dynstat_uvel_sd              =   6.4108233001014E-03
(PID.TID 0000.0001) %MON dynstat_uvel_del2            =   3.1112557566825E-07
(PID.TID 0000.0001) %MON dynstat_vvel_max             =   6.3621047537566E-02
(PID.TID 0000.0001) %MON dynstat_vvel_min             =  -8.4752452536399E-03
(PID.TID 0000.0001) %MON dynstat_vvel_mean            =   1.4272835439049E-08
(PID.TID 0000.0001) %MON dynstat_vvel_sd              =   8.1509178584648E-03
(PID.TID 0000.0001) %MON dynstat_vvel_del2            =   1.1045227120955E-06
(PID.TID 0000.0001) %MON dynstat_wvel_max             =   1.5790791899199E-08
(PID.TID 0000.0001) %MON dynstat_wvel_min             =  -1.5167284081690E-08
(PID.TID 0000.0001) %MON dynstat_wvel_mean            =   3.9502565861709E-22
(PID.TID 0000.0001) %MON dynstat_wvel_sd              =   4.7707127905505E-09
(PID.TID 0000.0001) %MON dynstat_wvel_del2            =   7.9421007582820E-14
(PID.TID 0000.0001) %MON dynstat_theta_max            =   2.0000000000000E+01
(PID.TID 0000.0001) %MON dynstat_theta_min            =   2.0000000000000E+01
(PID.TID 0000.0001) %MON dynstat_theta_mean           =   1.9999999999999E+01
(PID.TID 0000.0001) %MON dynstat_theta_sd             =   1.1972645097557E-12
(PID.TID 0000.0001) %MON dynstat_theta_del2           =   0.0000000000000E+00
(PID.TID 0000.0001) %MON dynstat_salt_max             =   3.0000000000000E+01
(PID.TID 0000.0001) %MON dynstat_salt_min             =   3.0000000000000E+01
(PID.TID 0000.0001) %MON dynstat_salt_mean            =   2.9999999999998E+01
(PID.TID 0000.0001) %MON dynstat_salt_sd              =   2.1529444893531E-12
(PID.TID 0000.0001) %MON dynstat_salt_del2            =   0.0000000000000E+00
(PID.TID 0000.0001) %MON trAdv_CFL_u_max              =   3.9122136591761E-02
(PID.TID 0000.0001) %MON trAdv_CFL_v_max              =   6.8645029862379E-02
(PID.TID 0000.0001) %MON trAdv_CFL_w_max              =   1.8302159453263E-08
(PID.TID 0000.0001) %MON advcfl_uvel_max              =   3.9203027924693E-02
(PID.TID 0000.0001) %MON advcfl_vvel_max              =   6.8710731340571E-02
(PID.TID 0000.0001) %MON advcfl_wvel_max              =   3.4108110502269E-08
(PID.TID 0000.0001) %MON advcfl_W_hf_max              =   0.0000000000000E+00
(PID.TID 0000.0001) %MON pe_b_mean                    =   8.9324811401697E-08
(PID.TID 0000.0001) %MON ke_max                       =   2.0232451196590E-03
(PID.TID 0000.0001) %MON ke_mean                      =   5.3526028169025E-05
(PID.TID 0000.0001) %MON ke_vol                       =   7.2529629296391E+15
(PID.TID 0000.0001) %MON vort_r_min                   =  -9.4748939881494E-07
(PID.TID 0000.0001) %MON vort_r_max                   =   3.3922066623565E-06
(PID.TID 0000.0001) %MON vort_a_mean                  =   8.2300000000000E-05
(PID.TID 0000.0001) %MON vort_a_sd                    =   7.1339731964337E-06
(PID.TID 0000.0001) %MON vort_p_mean                  =   8.6919888360246E-05
(PID.TID 0000.0001) %MON vort_p_sd                    =   1.7900069188766E-05
(PID.TID 0000.0001) %MON surfExpan_theta_mean         =   7.9162064496170E-21
(PID.TID 0000.0001) %MON surfExpan_salt_mean          =   1.1874271221331E-20
(PID.TID 0000.0001) // =======================================================
(PID.TID 0000.0001) // End MONITOR dynamic field statistics
(PID.TID 0000.0001) // =======================================================
(PID.TID 0000.0001) %CHECKPOINT       480 ckptA
(PID.TID 0000.0001)   Seconds in section "ALL                    [THE_MODEL_MAIN]":
(PID.TID 0000.0001)           User time:   351.439147867262
(PID.TID 0000.0001)         System time:  0.000000000000000E+000
(PID.TID 0000.0001)     Wall clock time:   355.217180013657
(PID.TID 0000.0001)          No. starts:           1
(PID.TID 0000.0001)           No. stops:           1
(PID.TID 0000.0001)   Seconds in section "INITIALISE_FIXED       [THE_MODEL_MAIN]":
(PID.TID 0000.0001)           User time:  0.108716996386647
(PID.TID 0000.0001)         System time:  0.000000000000000E+000
(PID.TID 0000.0001)     Wall clock time:  0.338835954666138
(PID.TID 0000.0001)          No. starts:           1
(PID.TID 0000.0001)           No. stops:           1
(PID.TID 0000.0001)   Seconds in section "THE_MAIN_LOOP          [THE_MODEL_MAIN]":
(PID.TID 0000.0001)           User time:   351.330393865705
(PID.TID 0000.0001)         System time:  0.000000000000000E+000
(PID.TID 0000.0001)     Wall clock time:   354.878284931183
(PID.TID 0000.0001)          No. starts:           1
(PID.TID 0000.0001)           No. stops:           1
(PID.TID 0000.0001)   Seconds in section "INITIALISE_VARIA    [THE_MAIN_LOOP]":
(PID.TID 0000.0001)           User time:  1.503901183605194E-002
(PID.TID 0000.0001)         System time:  0.000000000000000E+000
(PID.TID 0000.0001)     Wall clock time:  0.103106021881104
(PID.TID 0000.0001)          No. starts:           1
(PID.TID 0000.0001)           No. stops:           1
(PID.TID 0000.0001)   Seconds in section "MAIN LOOP           [THE_MAIN_LOOP]":
(PID.TID 0000.0001)           User time:   351.315318867564
(PID.TID 0000.0001)         System time:  0.000000000000000E+000
(PID.TID 0000.0001)     Wall clock time:   354.775109052658
(PID.TID 0000.0001)          No. starts:           1
(PID.TID 0000.0001)           No. stops:           1
(PID.TID 0000.0001)   Seconds in section "MAIN_DO_LOOP        [THE_MAIN_LOOP]":
(PID.TID 0000.0001)           User time:   351.310594156384
(PID.TID 0000.0001)         System time:  0.000000000000000E+000
(PID.TID 0000.0001)     Wall clock time:   354.770213127136
(PID.TID 0000.0001)          No. starts:         480
(PID.TID 0000.0001)           No. stops:         480
(PID.TID 0000.0001)   Seconds in section "FORWARD_STEP        [MAIN_DO_LOOP]":
(PID.TID 0000.0001)           User time:   351.300230547786
(PID.TID 0000.0001)         System time:  0.000000000000000E+000
(PID.TID 0000.0001)     Wall clock time:   354.759979486465
(PID.TID 0000.0001)          No. starts:         480
(PID.TID 0000.0001)           No. stops:         480
(PID.TID 0000.0001)   Seconds in section "LOAD_FIELDS_DRIVER  [FORWARD_STEP]":
(PID.TID 0000.0001)           User time:  1.474411785602570E-002
(PID.TID 0000.0001)         System time:  0.000000000000000E+000
(PID.TID 0000.0001)     Wall clock time:  1.521062850952148E-002
(PID.TID 0000.0001)          No. starts:         480
(PID.TID 0000.0001)           No. stops:         480
(PID.TID 0000.0001)   Seconds in section "EXTERNAL_FLDS_LOAD [LOAD_FLDS_DRIVER]":
(PID.TID 0000.0001)           User time:  5.324333906173706E-003
(PID.TID 0000.0001)         System time:  0.000000000000000E+000
(PID.TID 0000.0001)     Wall clock time:  5.078315734863281E-003
(PID.TID 0000.0001)          No. starts:         480
(PID.TID 0000.0001)           No. stops:         480
(PID.TID 0000.0001)   Seconds in section "DO_ATMOSPHERIC_PHYS [FORWARD_STEP]":
(PID.TID 0000.0001)           User time:  5.141109228134155E-003
(PID.TID 0000.0001)         System time:  0.000000000000000E+000
(PID.TID 0000.0001)     Wall clock time:  5.075693130493164E-003
(PID.TID 0000.0001)          No. starts:         480
(PID.TID 0000.0001)           No. stops:         480
(PID.TID 0000.0001)   Seconds in section "DO_OCEANIC_PHYS     [FORWARD_STEP]":
(PID.TID 0000.0001)           User time:   1.00769019126892
(PID.TID 0000.0001)         System time:  0.000000000000000E+000
(PID.TID 0000.0001)     Wall clock time:   1.03325414657593
(PID.TID 0000.0001)          No. starts:         480
(PID.TID 0000.0001)           No. stops:         480
(PID.TID 0000.0001)   Seconds in section "THERMODYNAMICS      [FORWARD_STEP]":
(PID.TID 0000.0001)           User time:  0.510678470134735
(PID.TID 0000.0001)         System time:  0.000000000000000E+000
(PID.TID 0000.0001)     Wall clock time:  0.525234699249268
(PID.TID 0000.0001)          No. starts:         480
(PID.TID 0000.0001)           No. stops:         480
(PID.TID 0000.0001)   Seconds in section "DYNAMICS            [FORWARD_STEP]":
(PID.TID 0000.0001)           User time:   11.8893015235662
(PID.TID 0000.0001)         System time:  0.000000000000000E+000
(PID.TID 0000.0001)     Wall clock time:   12.0011408329010
(PID.TID 0000.0001)          No. starts:         480
(PID.TID 0000.0001)           No. stops:         480
(PID.TID 0000.0001)   Seconds in section "SOLVE_FOR_PRESSURE  [FORWARD_STEP]":
(PID.TID 0000.0001)           User time:   335.883516103029
(PID.TID 0000.0001)         System time:  0.000000000000000E+000
(PID.TID 0000.0001)     Wall clock time:   336.224973201752
(PID.TID 0000.0001)          No. starts:         480
(PID.TID 0000.0001)           No. stops:         480
(PID.TID 0000.0001)   Seconds in section "MOM_CORRECTION_STEP [FORWARD_STEP]":
(PID.TID 0000.0001)           User time:  0.818294048309326
(PID.TID 0000.0001)         System time:  0.000000000000000E+000
(PID.TID 0000.0001)     Wall clock time:  0.834403038024902
(PID.TID 0000.0001)          No. starts:         480
(PID.TID 0000.0001)           No. stops:         480
(PID.TID 0000.0001)   Seconds in section "INTEGR_CONTINUITY   [FORWARD_STEP]":
(PID.TID 0000.0001)           User time:  0.514401763677597
(PID.TID 0000.0001)         System time:  0.000000000000000E+000
(PID.TID 0000.0001)     Wall clock time:  0.526153564453125
(PID.TID 0000.0001)          No. starts:         480
(PID.TID 0000.0001)           No. stops:         480
(PID.TID 0000.0001)   Seconds in section "TRC_CORRECTION_STEP [FORWARD_STEP]":
(PID.TID 0000.0001)           User time:  4.800021648406982E-003
(PID.TID 0000.0001)         System time:  0.000000000000000E+000
(PID.TID 0000.0001)     Wall clock time:  5.071163177490234E-003
(PID.TID 0000.0001)          No. starts:         480
(PID.TID 0000.0001)           No. stops:         480
(PID.TID 0000.0001)   Seconds in section "BLOCKING_EXCHANGES  [FORWARD_STEP]":
(PID.TID 0000.0001)           User time:  5.634051561355591E-002
(PID.TID 0000.0001)         System time:  0.000000000000000E+000
(PID.TID 0000.0001)     Wall clock time:  5.822181701660156E-002
(PID.TID 0000.0001)          No. starts:         480
(PID.TID 0000.0001)           No. stops:         480
(PID.TID 0000.0001)   Seconds in section "MONITOR             [FORWARD_STEP]":
(PID.TID 0000.0001)           User time:  0.333440780639648
(PID.TID 0000.0001)         System time:  0.000000000000000E+000
(PID.TID 0000.0001)     Wall clock time:  0.380044698715210
(PID.TID 0000.0001)          No. starts:         480
(PID.TID 0000.0001)           No. stops:         480
(PID.TID 0000.0001)   Seconds in section "DO_THE_MODEL_IO     [FORWARD_STEP]":
(PID.TID 0000.0001)           User time:  0.173879086971283
(PID.TID 0000.0001)         System time:  0.000000000000000E+000
(PID.TID 0000.0001)     Wall clock time:   2.98056721687317
(PID.TID 0000.0001)          No. starts:         480
(PID.TID 0000.0001)           No. stops:         480
(PID.TID 0000.0001)   Seconds in section "DO_WRITE_PICKUP     [FORWARD_STEP]":
(PID.TID 0000.0001)           User time:  5.042612552642822E-003
(PID.TID 0000.0001)         System time:  0.000000000000000E+000
(PID.TID 0000.0001)     Wall clock time:  9.699606895446777E-002
(PID.TID 0000.0001)          No. starts:         480
(PID.TID 0000.0001)           No. stops:         480
(PID.TID 0000.0001) // ======================================================
(PID.TID 0000.0001) // Tile <-> Tile communication statistics
(PID.TID 0000.0001) // ======================================================
(PID.TID 0000.0001) // o Tile number: 000001
(PID.TID 0000.0001) //         No. X exchanges =              0
(PID.TID 0000.0001) //            Max. X spins =              0
(PID.TID 0000.0001) //            Min. X spins =     1000000000
(PID.TID 0000.0001) //          Total. X spins =              0
(PID.TID 0000.0001) //            Avg. X spins =       0.00E+00
(PID.TID 0000.0001) //         No. Y exchanges =              0
(PID.TID 0000.0001) //            Max. Y spins =              0
(PID.TID 0000.0001) //            Min. Y spins =     1000000000
(PID.TID 0000.0001) //          Total. Y spins =              0
(PID.TID 0000.0001) //            Avg. Y spins =       0.00E+00
(PID.TID 0000.0001) // o Thread number: 000001
(PID.TID 0000.0001) //            No. barriers =        1641920
(PID.TID 0000.0001) //      Max. barrier spins =              1
(PID.TID 0000.0001) //      Min. barrier spins =              1
(PID.TID 0000.0001) //     Total barrier spins =        1641920
(PID.TID 0000.0001) //      Avg. barrier spins =       1.00E+00
PROGRAM MAIN: Execution ended Normally
