(PID.TID 0000.0001) 
(PID.TID 0000.0001) // ======================================================
(PID.TID 0000.0001) //                      MITgcm UV
(PID.TID 0000.0001) //                      =========
(PID.TID 0000.0001) // ======================================================
(PID.TID 0000.0001) // execution environment starting up...
(PID.TID 0000.0001) 
(PID.TID 0000.0001) // MITgcmUV version:  checkpoint67v
(PID.TID 0000.0001) // Build user:        eavesr
(PID.TID 0000.0001) // Build host:        atmlxint3
(PID.TID 0000.0001) // Build date:        Mon 15 Feb 15:18:47 GMT 2021
(PID.TID 0000.0001) 
(PID.TID 0000.0001) // =======================================================
(PID.TID 0000.0001) // Execution Environment parameter file "eedata"
(PID.TID 0000.0001) // =======================================================
(PID.TID 0000.0001) ># Example "eedata" file
(PID.TID 0000.0001) ># Lines beginning "#" are comments
(PID.TID 0000.0001) >#  nTx      :: No. threads per process in X
(PID.TID 0000.0001) >#  nTy      :: No. threads per process in Y
(PID.TID 0000.0001) ># debugMode :: print debug msg (sequence of S/R calls)
(PID.TID 0000.0001) > &EEPARMS
(PID.TID 0000.0001) > nTx=1,
(PID.TID 0000.0001) > nTy=1,
(PID.TID 0000.0001) > &
(PID.TID 0000.0001) ># Note: Some systems use & as the namelist terminator (as shown here).
(PID.TID 0000.0001) >#       Other systems use a / character.
(PID.TID 0000.0001) 
(PID.TID 0000.0001) // =======================================================
(PID.TID 0000.0001) // Computational Grid Specification ( see files "SIZE.h" )
(PID.TID 0000.0001) //                                  ( and "eedata"       )
(PID.TID 0000.0001) // =======================================================
(PID.TID 0000.0001)      nPx =    1 ; /* No. processes in X */
(PID.TID 0000.0001)      nPy =    1 ; /* No. processes in Y */
(PID.TID 0000.0001)      nSx =    1 ; /* No. tiles in X per process */
(PID.TID 0000.0001)      nSy =    1 ; /* No. tiles in Y per process */
(PID.TID 0000.0001)      sNx =  248 ; /* Tile size in X */
(PID.TID 0000.0001)      sNy =  248 ; /* Tile size in Y */
(PID.TID 0000.0001)      OLx =    2 ; /* Tile overlap distance in X */
(PID.TID 0000.0001)      OLy =    2 ; /* Tile overlap distance in Y */
(PID.TID 0000.0001)      nTx =    1 ; /* No. threads in X per process */
(PID.TID 0000.0001)      nTy =    1 ; /* No. threads in Y per process */
(PID.TID 0000.0001)       Nr =    1 ; /* No. levels in the vertical   */
(PID.TID 0000.0001)       Nx =  248 ; /* Total domain size in X ( = nPx*nSx*sNx ) */
(PID.TID 0000.0001)       Ny =  248 ; /* Total domain size in Y ( = nPy*nSy*sNy ) */
(PID.TID 0000.0001)   nTiles =    1 ; /* Total no. tiles per process ( = nSx*nSy ) */
(PID.TID 0000.0001)   nProcs =    1 ; /* Total no. processes ( = nPx*nPy ) */
(PID.TID 0000.0001) nThreads =    1 ; /* Total no. threads per process ( = nTx*nTy ) */
(PID.TID 0000.0001) usingMPI =    F ; /* Flag used to control whether MPI is in use */
(PID.TID 0000.0001)                   /*  note: To execute a program with MPI calls */
(PID.TID 0000.0001)                   /*  it must be launched appropriately e.g     */
(PID.TID 0000.0001)                   /*  "mpirun -np 64 ......"                    */
(PID.TID 0000.0001) useCoupler=   F ; /* Flag used to control communications with   */
(PID.TID 0000.0001)                   /*  other model components, through a coupler */
(PID.TID 0000.0001) useNest2W_parent =    F ;/* Control 2-W Nesting comm */
(PID.TID 0000.0001) useNest2W_child  =    F ;/* Control 2-W Nesting comm */
(PID.TID 0000.0001) debugMode =    F ; /* print debug msg. (sequence of S/R calls)  */
(PID.TID 0000.0001) printMapIncludesZeros=    F ; /* print zeros in Std.Output maps */
(PID.TID 0000.0001) maxLengthPrt1D=   65 /* maxLength of 1D array printed to StdOut */
(PID.TID 0000.0001) 
(PID.TID 0000.0001) // ======================================================
(PID.TID 0000.0001) // Mapping of tiles to threads
(PID.TID 0000.0001) // ======================================================
(PID.TID 0000.0001) // -o- Thread   1, tiles (   1:   1,   1:   1)
(PID.TID 0000.0001) 
(PID.TID 0000.0001) // ======================================================
(PID.TID 0000.0001) // Tile <-> Tile connectvity table
(PID.TID 0000.0001) // ======================================================
(PID.TID 0000.0001) // Tile number: 000001 (process no. = 000000)
(PID.TID 0000.0001) //        WEST: Tile = 000001, Process = 000000, Comm = put
(PID.TID 0000.0001) //                bi = 000001, bj = 000001
(PID.TID 0000.0001) //        EAST: Tile = 000001, Process = 000000, Comm = put
(PID.TID 0000.0001) //                bi = 000001, bj = 000001
(PID.TID 0000.0001) //       SOUTH: Tile = 000001, Process = 000000, Comm = put
(PID.TID 0000.0001) //                bi = 000001, bj = 000001
(PID.TID 0000.0001) //       NORTH: Tile = 000001, Process = 000000, Comm = put
(PID.TID 0000.0001) //                bi = 000001, bj = 000001
(PID.TID 0000.0001) 
(PID.TID 0000.0001)  INI_PARMS: opening model parameter file "data"
(PID.TID 0000.0001)  OPEN_COPY_DATA_FILE: opening file data
(PID.TID 0000.0001) // =======================================================
(PID.TID 0000.0001) // Parameter file "data"
(PID.TID 0000.0001) // =======================================================
(PID.TID 0000.0001) ># Model parameters
(PID.TID 0000.0001) ># Continuous equation parameters
(PID.TID 0000.0001) > &PARM01
(PID.TID 0000.0001) > viscAh=4.E2,
(PID.TID 0000.0001) > f0=1.E-4,
(PID.TID 0000.0001) > beta=1.E-11,
(PID.TID 0000.0001) > rhoConst=1000.,
(PID.TID 0000.0001) > gBaro=9.81,
(PID.TID 0000.0001) > rigidLid=.FALSE.,
(PID.TID 0000.0001) > implicitFreeSurface=.TRUE.,
(PID.TID 0000.0001) ># momAdvection=.FALSE.,
(PID.TID 0000.0001) > tempStepping=.FALSE.,
(PID.TID 0000.0001) > saltStepping=.FALSE.,
(PID.TID 0000.0001) > useSingleCpuIO=.TRUE.,
(PID.TID 0000.0001) > hFacMin=0.1,
(PID.TID 0000.0001) > &
(PID.TID 0000.0001) >
(PID.TID 0000.0001) ># Elliptic solver parameters
(PID.TID 0000.0001) > &PARM02
(PID.TID 0000.0001) > cg2dTargetResidual=1.E-7,
(PID.TID 0000.0001) > cg2dMaxIters=1000,
(PID.TID 0000.0001) > &
(PID.TID 0000.0001) >
(PID.TID 0000.0001) ># Time stepping parameters
(PID.TID 0000.0001) > &PARM03
(PID.TID 0000.0001) > nIter0=0,
(PID.TID 0000.0001) > nTimeSteps=21600,
(PID.TID 0000.0001) > deltaT=1200.0,
(PID.TID 0000.0001) > pChkptFreq=31104000.0,
(PID.TID 0000.0001) > chkptFreq=25920000.0,
(PID.TID 0000.0001) > dumpFreq=86400.0,
(PID.TID 0000.0001) > monitorFreq=86400.,
(PID.TID 0000.0001) > monitorSelect=2,
(PID.TID 0000.0001) >#-for longer run (3.0 yr):
(PID.TID 0000.0001) ># nTimeSteps=77760,
(PID.TID 0000.0001) ># monitorFreq=864000.,
(PID.TID 0000.0001) > &
(PID.TID 0000.0001) >
(PID.TID 0000.0001) ># Gridding parameters
(PID.TID 0000.0001) > &PARM04
(PID.TID 0000.0001) > usingCartesianGrid=.TRUE.,
(PID.TID 0000.0001) > delX=248*5.E3,
(PID.TID 0000.0001) > delY=248*5.E3,
(PID.TID 0000.0001) > xgOrigin=-5.E3,
(PID.TID 0000.0001) > ygOrigin=-5.E3,
(PID.TID 0000.0001) > delR=5000.,
(PID.TID 0000.0001) > &
(PID.TID 0000.0001) >
(PID.TID 0000.0001) ># Input datasets
(PID.TID 0000.0001) > &PARM05
(PID.TID 0000.0001) > bathyFile='bathy.bin'
(PID.TID 0000.0001) > zonalWindFile='wind.bin',
(PID.TID 0000.0001) >#zonalWindFile='windx_siny.bin',
(PID.TID 0000.0001) > meridWindFile=,
(PID.TID 0000.0001) > &
(PID.TID 0000.0001) 
(PID.TID 0000.0001)  INI_PARMS ; starts to read PARM01
(PID.TID 0000.0001)  INI_PARMS ; read PARM01 : OK
(PID.TID 0000.0001)  INI_PARMS ; starts to read PARM02
(PID.TID 0000.0001)  INI_PARMS ; read PARM02 : OK
(PID.TID 0000.0001)  INI_PARMS ; starts to read PARM03
(PID.TID 0000.0001)  INI_PARMS ; read PARM03 : OK
(PID.TID 0000.0001)  INI_PARMS ; starts to read PARM04
(PID.TID 0000.0001)  INI_PARMS ; read PARM04 : OK
(PID.TID 0000.0001)  INI_PARMS ; starts to read PARM05
(PID.TID 0000.0001)  INI_PARMS ; read PARM05 : OK
(PID.TID 0000.0001)  INI_PARMS: finished reading file "data"
(PID.TID 0000.0001)  PACKAGES_BOOT: opening data.pkg
(PID.TID 0000.0001)  OPEN_COPY_DATA_FILE: opening file data.pkg
(PID.TID 0000.0001) // =======================================================
(PID.TID 0000.0001) // Parameter file "data.pkg"
(PID.TID 0000.0001) // =======================================================
(PID.TID 0000.0001) ># Packages
(PID.TID 0000.0001) > &PACKAGES
(PID.TID 0000.0001) > &
(PID.TID 0000.0001) 
(PID.TID 0000.0001)  PACKAGES_BOOT: finished reading data.pkg
(PID.TID 0000.0001)  PACKAGES_BOOT: On/Off package Summary
 --------  pkgs with a standard "usePKG" On/Off switch in "data.pkg":  --------
 -------- pkgs without standard "usePKG" On/Off switch in "data.pkg":  --------
 pkg/generic_advdiff      compiled but not used ( useGAD                   = F )
 pkg/mom_common           compiled   and   used ( momStepping              = T )
 pkg/mom_vecinv           compiled but not used ( +vectorInvariantMomentum = F )
 pkg/mom_fluxform         compiled   and   used ( & not vectorInvariantMom = T )
 pkg/monitor              compiled   and   used ( monitorFreq > 0.         = T )
 pkg/debug                compiled but not used ( debugMode                = F )
 pkg/rw                   compiled   and   used
 pkg/mdsio                compiled   and   used
(PID.TID 0000.0001)  PACKAGES_BOOT: End of package Summary
(PID.TID 0000.0001) 
(PID.TID 0000.0001) SET_PARMS: done
(PID.TID 0000.0001) Enter INI_VERTICAL_GRID: setInterFDr=    T ; setCenterDr=    F
(PID.TID 0000.0001) %MON XC_max                       =   1.2325000000000E+06
(PID.TID 0000.0001) %MON XC_min                       =  -2.5000000000000E+03
(PID.TID 0000.0001) %MON XC_mean                      =   6.1500000000000E+05
(PID.TID 0000.0001) %MON XC_sd                        =   3.5795425685414E+05
(PID.TID 0000.0001) %MON XG_max                       =   1.2300000000000E+06
(PID.TID 0000.0001) %MON XG_min                       =  -5.0000000000000E+03
(PID.TID 0000.0001) %MON XG_mean                      =   6.1250000000000E+05
(PID.TID 0000.0001) %MON XG_sd                        =   3.5795425685414E+05
(PID.TID 0000.0001) %MON DXC_max                      =   5.0000000000000E+03
(PID.TID 0000.0001) %MON DXC_min                      =   5.0000000000000E+03
(PID.TID 0000.0001) %MON DXC_mean                     =   5.0000000000000E+03
(PID.TID 0000.0001) %MON DXC_sd                       =   9.0949470177293E-13
(PID.TID 0000.0001) %MON DXF_max                      =   5.0000000000000E+03
(PID.TID 0000.0001) %MON DXF_min                      =   5.0000000000000E+03
(PID.TID 0000.0001) %MON DXF_mean                     =   5.0000000000000E+03
(PID.TID 0000.0001) %MON DXF_sd                       =   9.0949470177293E-13
(PID.TID 0000.0001) %MON DXG_max                      =   5.0000000000000E+03
(PID.TID 0000.0001) %MON DXG_min                      =   5.0000000000000E+03
(PID.TID 0000.0001) %MON DXG_mean                     =   5.0000000000000E+03
(PID.TID 0000.0001) %MON DXG_sd                       =   9.0949470177293E-13
(PID.TID 0000.0001) %MON DXV_max                      =   5.0000000000000E+03
(PID.TID 0000.0001) %MON DXV_min                      =   5.0000000000000E+03
(PID.TID 0000.0001) %MON DXV_mean                     =   5.0000000000000E+03
(PID.TID 0000.0001) %MON DXV_sd                       =   9.0949470177293E-13
(PID.TID 0000.0001) %MON YC_max                       =   1.2325000000000E+06
(PID.TID 0000.0001) %MON YC_min                       =  -2.5000000000000E+03
(PID.TID 0000.0001) %MON YC_mean                      =   6.1500000000000E+05
(PID.TID 0000.0001) %MON YC_sd                        =   3.5795425685414E+05
(PID.TID 0000.0001) %MON YG_max                       =   1.2300000000000E+06
(PID.TID 0000.0001) %MON YG_min                       =  -5.0000000000000E+03
(PID.TID 0000.0001) %MON YG_mean                      =   6.1250000000000E+05
(PID.TID 0000.0001) %MON YG_sd                        =   3.5795425685414E+05
(PID.TID 0000.0001) %MON DYC_max                      =   5.0000000000000E+03
(PID.TID 0000.0001) %MON DYC_min                      =   5.0000000000000E+03
(PID.TID 0000.0001) %MON DYC_mean                     =   5.0000000000000E+03
(PID.TID 0000.0001) %MON DYC_sd                       =   9.0949470177293E-13
(PID.TID 0000.0001) %MON DYF_max                      =   5.0000000000000E+03
(PID.TID 0000.0001) %MON DYF_min                      =   5.0000000000000E+03
(PID.TID 0000.0001) %MON DYF_mean                     =   5.0000000000000E+03
(PID.TID 0000.0001) %MON DYF_sd                       =   9.0949470177293E-13
(PID.TID 0000.0001) %MON DYG_max                      =   5.0000000000000E+03
(PID.TID 0000.0001) %MON DYG_min                      =   5.0000000000000E+03
(PID.TID 0000.0001) %MON DYG_mean                     =   5.0000000000000E+03
(PID.TID 0000.0001) %MON DYG_sd                       =   9.0949470177293E-13
(PID.TID 0000.0001) %MON DYU_max                      =   5.0000000000000E+03
(PID.TID 0000.0001) %MON DYU_min                      =   5.0000000000000E+03
(PID.TID 0000.0001) %MON DYU_mean                     =   5.0000000000000E+03
(PID.TID 0000.0001) %MON DYU_sd                       =   9.0949470177293E-13
(PID.TID 0000.0001) %MON RA_max                       =   2.5000000000000E+07
(PID.TID 0000.0001) %MON RA_min                       =   2.5000000000000E+07
(PID.TID 0000.0001) %MON RA_mean                      =   2.5000000000000E+07
(PID.TID 0000.0001) %MON RA_sd                        =   3.7252902984619E-09
(PID.TID 0000.0001) %MON RAW_max                      =   2.5000000000000E+07
(PID.TID 0000.0001) %MON RAW_min                      =   2.5000000000000E+07
(PID.TID 0000.0001) %MON RAW_mean                     =   2.5000000000000E+07
(PID.TID 0000.0001) %MON RAW_sd                       =   3.7252902984619E-09
(PID.TID 0000.0001) %MON RAS_max                      =   2.5000000000000E+07
(PID.TID 0000.0001) %MON RAS_min                      =   2.5000000000000E+07
(PID.TID 0000.0001) %MON RAS_mean                     =   2.5000000000000E+07
(PID.TID 0000.0001) %MON RAS_sd                       =   3.7252902984619E-09
(PID.TID 0000.0001) %MON RAZ_max                      =   2.5000000000000E+07
(PID.TID 0000.0001) %MON RAZ_min                      =   2.5000000000000E+07
(PID.TID 0000.0001) %MON RAZ_mean                     =   2.5000000000000E+07
(PID.TID 0000.0001) %MON RAZ_sd                       =   3.7252902984619E-09
(PID.TID 0000.0001) %MON AngleCS_max                  =   1.0000000000000E+00
(PID.TID 0000.0001) %MON AngleCS_min                  =   1.0000000000000E+00
(PID.TID 0000.0001) %MON AngleCS_mean                 =   1.0000000000000E+00
(PID.TID 0000.0001) %MON AngleCS_sd                   =   0.0000000000000E+00
(PID.TID 0000.0001) %MON AngleSN_max                  =   0.0000000000000E+00
(PID.TID 0000.0001) %MON AngleSN_min                  =   0.0000000000000E+00
(PID.TID 0000.0001) %MON AngleSN_mean                 =   0.0000000000000E+00
(PID.TID 0000.0001) %MON AngleSN_sd                   =   0.0000000000000E+00
(PID.TID 0000.0001)  MDS_READ_FIELD: opening global file: bathy.bin
(PID.TID 0000.0001) // =======================================================
(PID.TID 0000.0001) // Field Model R_low (ini_masks_etc)
(PID.TID 0000.0001) // CMIN =         -4.999819335937500E+03
(PID.TID 0000.0001) // CMAX =         -4.500020019531250E+03
(PID.TID 0000.0001) // CINT =          1.851108579282407E+01
(PID.TID 0000.0001) // SYMBOLS (CMIN->CMAX): -abcdefghijklmnopqrstuvwxyz+
(PID.TID 0000.0001) //                  0.0: .
(PID.TID 0000.0001) // RANGE I (Lo:Hi:Step):(    -1:   250:     1)
(PID.TID 0000.0001) // RANGE J (Lo:Hi:Step):(   250:    -1:    -1)
(PID.TID 0000.0001) // RANGE K (Lo:Hi:Step):(   1:   1:   1)
(PID.TID 0000.0001) // =======================================================
(PID.TID 0000.0001) K =   1
(PID.TID 0000.0001) //                I=8       I=18      I=28      I=38      I=48      I=58      I=68      I=78      I=88      I=98      I=108     I=118     I=128     I=138     I=148     I=158     I=168     I=178     I=188     I=198     I=208     I=218     I=228     I=238     I=248
(PID.TID 0000.0001) // |--J--|101234567|901234567|901234567|901234567|901234567|901234567|901234567|901234567|901234567|901234567|901234567|901234567|901234567|901234567|901234567|901234567|901234567|901234567|901234567|901234567|901234567|901234567|901234567|901234567|901234567|90
(PID.TID 0000.0001) //    250 -..------------------------------------------------------------------------------------------------------------------aaaaaaaaaaaaaaaaaa------------------------------------------------------------------------------------------------------------------..-
(PID.TID 0000.0001) //    249 ............................................................................................................................................................................................................................................................
(PID.TID 0000.0001) //    248 ............................................................................................................................................................................................................................................................
(PID.TID 0000.0001) //    247 -..------------------------------------------------------------------------------------------------------------------aaaaaaaaaaaaaaaaaa------------------------------------------------------------------------------------------------------------------..-
(PID.TID 0000.0001) //    246 -..-------------------------------------------------aaaaaaaaaaaaaaaaaaaaaaaaaaaaaaaaaaaaaaaaaaaaaaaaaaaaaaaaaaaaaaaaaaaaaaaaaaaaaaaaaaaaaaaaaaaaaaaaaaaaaaaaaaaaaaaaaaaaaaaaaaaaaaaaaaaaaaaaaaaaaaaaaaaa-------------------------------------------------..-
(PID.TID 0000.0001) //    245 -..----------------------------------aaaaaaaaaaaaaaaaaaaaaaaaaaaaaaaaaaaaaaaaaaaaaaaaaaaaaaaaaaaaaaaaaaaaaaaaaaaaaaaaaaaaaaaaaaaaaaaaaaaaaaaaaaaaaaaaaaaaaaaaaaaaaaaaaaaaaaaaaaaaaaaaaaaaaaaaaaaaaaaaaaaaaaaaaaaaaaaaaa----------------------------------..-
(PID.TID 0000.0001) //    244 -..--------------------------aaaaaaaaaaaaaaaaaaaaaaaaaaaaaaaaaaaaaaaaaaaaaaaaaaaaaaaaaaaaaaaaaaaaaaaaaaaaaaaaaabbbbbbbbbbbbbbbbbbbbbbbbbbbbbbaaaaaaaaaaaaaaaaaaaaaaaaaaaaaaaaaaaaaaaaaaaaaaaaaaaaaaaaaaaaaaaaaaaaaaaaaaaaaaaaaa--------------------------..-
(PID.TID 0000.0001) //    243 -..---------------------aaaaaaaaaaaaaaaaaaaaaaaaaaaaaaaaaaaaaaaaaaaaaaaaaaaabbbbbbbbbbbbbbbbbbbbbbbbbbbbbbbbbbbbbbbbbbbbbbbbbbbbbbbbbbbbbbbbbbbbbbbbbbbbbbbbbbbbbbbbbbbbbbbbbbbbaaaaaaaaaaaaaaaaaaaaaaaaaaaaaaaaaaaaaaaaaaaaaaaaaaaa---------------------..-
(PID.TID 0000.0001) //    242 -..-----------------aaaaaaaaaaaaaaaaaaaaaaaaaaaaaaaaaaaaaaaaabbbbbbbbbbbbbbbbbbbbbbbbbbbbbbbbbbbbbbbbbbbbbbbbbbbbbbbbbbbbbbbbbbbbbbbbbbbbbbbbbbbbbbbbbbbbbbbbbbbbbbbbbbbbbbbbbbbbbbbbbbbbbbbbbbaaaaaaaaaaaaaaaaaaaaaaaaaaaaaaaaaaaaaaaaa-----------------..-
(PID.TID 0000.0001) //    241 -..---------------aaaaaaaaaaaaaaaaaaaaaaaaaaaaaaaaaabbbbbbbbbbbbbbbbbbbbbbbbbbbbbbbbbbbbbbbbbbbbbbbbbbbbbbbbbbccccccccccccccccccccccccccccccccbbbbbbbbbbbbbbbbbbbbbbbbbbbbbbbbbbbbbbbbbbbbbbbbbbbbbbbbbbaaaaaaaaaaaaaaaaaaaaaaaaaaaaaaaaaa---------------..-
(PID.TID 0000.0001) //    240 -..-------------aaaaaaaaaaaaaaaaaaaaaaaaaaaaabbbbbbbbbbbbbbbbbbbbbbbbbbbbbbbbbbbbbbbccccccccccccccccccccccccccccccccccccccccccccccccccccccccccccccccccccccccccccccccccccbbbbbbbbbbbbbbbbbbbbbbbbbbbbbbbbbbbbbbbaaaaaaaaaaaaaaaaaaaaaaaaaaaaa-------------..-
(PID.TID 0000.0001) //    239 -..-----------aaaaaaaaaaaaaaaaaaaaaaaaaabbbbbbbbbbbbbbbbbbbbbbbbbbbbbbbbccccccccccccccccccccccccccccccccccccccccccccccccccccccccccccccccccccccccccccccccccccccccccccccccccccccccccccbbbbbbbbbbbbbbbbbbbbbbbbbbbbbbbbaaaaaaaaaaaaaaaaaaaaaaaaaa-----------..-
(PID.TID 0000.0001) //    238 -..----------aaaaaaaaaaaaaaaaaaaaaaabbbbbbbbbbbbbbbbbbbbbbbbbbbcccccccccccccccccccccccccccccccccccccccccccccccddddddddddddddddddddddddddddddddcccccccccccccccccccccccccccccccccccccccccccccccbbbbbbbbbbbbbbbbbbbbbbbbbbbaaaaaaaaaaaaaaaaaaaaaaa----------..-
(PID.TID 0000.0001) //    237 -..---------aaaaaaaaaaaaaaaaaaaaabbbbbbbbbbbbbbbbbbbbbbbbcccccccccccccccccccccccccccccccccddddddddddddddddddddddddddddddddddddddddddddddddddddddddddddddddddddddddcccccccccccccccccccccccccccccccccbbbbbbbbbbbbbbbbbbbbbbbbaaaaaaaaaaaaaaaaaaaaa---------..-
(PID.TID 0000.0001) //    236 -..--------aaaaaaaaaaaaaaaaaaaabbbbbbbbbbbbbbbbbbbbbccccccccccccccccccccccccccddddddddddddddddddddddddddddddddddddddddddddddddddddddddddddddddddddddddddddddddddddddddddddddddccccccccccccccccccccccccccbbbbbbbbbbbbbbbbbbbbbaaaaaaaaaaaaaaaaaaaa--------..-
(PID.TID 0000.0001) //    235 -..--------aaaaaaaaaaaaaaaaabbbbbbbbbbbbbbbbbbbbcccccccccccccccccccccccddddddddddddddddddddddddddddddddddddddddeeeeeeeeeeeeeeeeeeeeeeeeeeeeeeddddddddddddddddddddddddddddddddddddddddcccccccccccccccccccccccbbbbbbbbbbbbbbbbbbbbaaaaaaaaaaaaaaaaa--------..-
(PID.TID 0000.0001) //    234 -..-------aaaaaaaaaaaaaaaaabbbbbbbbbbbbbbbbbccccccccccccccccccccdddddddddddddddddddddddddddddeeeeeeeeeeeeeeeeeeeeeeeeeeeeeeeeeeeeeeeeeeeeeeeeeeeeeeeeeeeeeeeeeedddddddddddddddddddddddddddddccccccccccccccccccccbbbbbbbbbbbbbbbbbaaaaaaaaaaaaaaaaa-------..-
(PID.TID 0000.0001) //    233 -..-------aaaaaaaaaaaaaaabbbbbbbbbbbbbbbbcccccccccccccccccccdddddddddddddddddddddddeeeeeeeeeeeeeeeeeeeeeeeeeeeeeeeeeeeeeeeeeeeeeeeeeeeeeeeeeeeeeeeeeeeeeeeeeeeeeeeeeeeeeedddddddddddddddddddddddcccccccccccccccccccbbbbbbbbbbbbbbbbaaaaaaaaaaaaaaa-------..-
(PID.TID 0000.0001) //    232 -..------aaaaaaaaaaaaaaabbbbbbbbbbbbbbbccccccccccccccccdddddddddddddddddddddeeeeeeeeeeeeeeeeeeeeeeeeeeeeeeeeeeeffffffffffffffffffffffffffffffeeeeeeeeeeeeeeeeeeeeeeeeeeeeeeeeeeedddddddddddddddddddddccccccccccccccccbbbbbbbbbbbbbbbaaaaaaaaaaaaaaa------..-
(PID.TID 0000.0001) //    231 -..------aaaaaaaaaaaaabbbbbbbbbbbbbbccccccccccccccccddddddddddddddddddeeeeeeeeeeeeeeeeeeeeeeeeeeffffffffffffffffffffffffffffffffffffffffffffffffffffffffffffeeeeeeeeeeeeeeeeeeeeeeeeeeddddddddddddddddddccccccccccccccccbbbbbbbbbbbbbbaaaaaaaaaaaaa------..-
(PID.TID 0000.0001) //    230 -..-----aaaaaaaaaaaaabbbbbbbbbbbbbcccccccccccccccddddddddddddddddeeeeeeeeeeeeeeeeeeeeeeffffffffffffffffffffffffffffffffffffffffffffffffffffffffffffffffffffffffffffffeeeeeeeeeeeeeeeeeeeeeeddddddddddddddddcccccccccccccccbbbbbbbbbbbbbaaaaaaaaaaaaa-----..-
(PID.TID 0000.0001) //    229 -..-----aaaaaaaaaaaabbbbbbbbbbbbbcccccccccccccdddddddddddddddeeeeeeeeeeeeeeeeeeefffffffffffffffffffffffffffffffffggggggggggggggggggggggggggfffffffffffffffffffffffffffffffffeeeeeeeeeeeeeeeeeeedddddddddddddddcccccccccccccbbbbbbbbbbbbbaaaaaaaaaaaa-----..-
(PID.TID 0000.0001) //    228 -..-----aaaaaaaaaaabbbbbbbbbbbbcccccccccccccddddddddddddddeeeeeeeeeeeeeeeeffffffffffffffffffffffffggggggggggggggggggggggggggggggggggggggggggggggggggggggggffffffffffffffffffffffffeeeeeeeeeeeeeeeeddddddddddddddcccccccccccccbbbbbbbbbbbbaaaaaaaaaaa-----..-
(PID.TID 0000.0001) //    227 -..-----aaaaaaaaaaabbbbbbbbbbbccccccccccccdddddddddddddeeeeeeeeeeeeeeeffffffffffffffffffffggggggggggggggggggggggggggggggggggggggggggggggggggggggggggggggggggggggggffffffffffffffffffffeeeeeeeeeeeeeeedddddddddddddccccccccccccbbbbbbbbbbbaaaaaaaaaaa-----..-
(PID.TID 0000.0001) //    226 -..----aaaaaaaaaaabbbbbbbbbbbcccccccccccddddddddddddeeeeeeeeeeeeeefffffffffffffffffggggggggggggggggggggggggggggggghhhhhhhhhhhhhhhhhhhhhhhhgggggggggggggggggggggggggggggggfffffffffffffffffeeeeeeeeeeeeeeddddddddddddcccccccccccbbbbbbbbbbbaaaaaaaaaaa----..-
(PID.TID 0000.0001) //    225 -..----aaaaaaaaaabbbbbbbbbbcccccccccccddddddddddddeeeeeeeeeeeeefffffffffffffffgggggggggggggggggggggghhhhhhhhhhhhhhhhhhhhhhhhhhhhhhhhhhhhhhhhhhhhhhhhhhhhggggggggggggggggggggggfffffffffffffffeeeeeeeeeeeeeddddddddddddcccccccccccbbbbbbbbbbaaaaaaaaaa----..-
(PID.TID 0000.0001) //    224 -..----aaaaaaaaaabbbbbbbbbcccccccccccdddddddddddeeeeeeeeeeeeffffffffffffffgggggggggggggggggghhhhhhhhhhhhhhhhhhhhhhhhhhhhhhhhhhhhhhhhhhhhhhhhhhhhhhhhhhhhhhhhhhhhggggggggggggggggggffffffffffffffeeeeeeeeeeeedddddddddddcccccccccccbbbbbbbbbaaaaaaaaaa----..-
(PID.TID 0000.0001) //    223 -..----aaaaaaaaabbbbbbbbbccccccccccdddddddddddeeeeeeeeeeefffffffffffffgggggggggggggggghhhhhhhhhhhhhhhhhhhhhhhhhhhhhhiiiiiiiiiiiiiiiiiiiihhhhhhhhhhhhhhhhhhhhhhhhhhhhhhggggggggggggggggfffffffffffffeeeeeeeeeeedddddddddddccccccccccbbbbbbbbbaaaaaaaaa----..-
(PID.TID 0000.0001) //    222 -..----aaaaaaaabbbbbbbbbbcccccccccddddddddddeeeeeeeeeeeffffffffffffgggggggggggggghhhhhhhhhhhhhhhhhhhhhhiiiiiiiiiiiiiiiiiiiiiiiiiiiiiiiiiiiiiiiiiiiiiihhhhhhhhhhhhhhhhhhhhhhggggggggggggggffffffffffffeeeeeeeeeeeddddddddddcccccccccbbbbbbbbbbaaaaaaaa----..-
(PID.TID 0000.0001) //    221 -..---aaaaaaaaabbbbbbbbbcccccccccdddddddddeeeeeeeeeeefffffffffffggggggggggggghhhhhhhhhhhhhhhhhhiiiiiiiiiiiiiiiiiiiiiiiiiiiiiiiiiiiiiiiiiiiiiiiiiiiiiiiiiiiiiihhhhhhhhhhhhhhhhhhgggggggggggggfffffffffffeeeeeeeeeeedddddddddcccccccccbbbbbbbbbaaaaaaaaa---..-
(PID.TID 0000.0001) //    220 -..---aaaaaaaaabbbbbbbbcccccccccdddddddddeeeeeeeeeeffffffffffggggggggggggghhhhhhhhhhhhhhhiiiiiiiiiiiiiiiiiiiiiiiiiiiiiiijjjjjjjjjjjjiiiiiiiiiiiiiiiiiiiiiiiiiiiiiiihhhhhhhhhhhhhhhgggggggggggggffffffffffeeeeeeeeeedddddddddcccccccccbbbbbbbbaaaaaaaaa---..-
(PID.TID 0000.0001) //    219 -..---aaaaaaaabbbbbbbbcccccccccddddddddeeeeeeeeeeffffffffffggggggggggghhhhhhhhhhhhhhiiiiiiiiiiiiiiiiiiiiijjjjjjjjjjjjjjjjjjjjjjjjjjjjjjjjjjjjjjjjjjiiiiiiiiiiiiiiiiiiiiihhhhhhhhhhhhhhgggggggggggffffffffffeeeeeeeeeeddddddddcccccccccbbbbbbbbaaaaaaaa---..-
(PID.TID 0000.0001) //    218 -..---aaaaaaaabbbbbbbbccccccccddddddddeeeeeeeeeffffffffffggggggggggghhhhhhhhhhhhiiiiiiiiiiiiiiiiijjjjjjjjjjjjjjjjjjjjjjjjjjjjjjjjjjjjjjjjjjjjjjjjjjjjjjjjjjiiiiiiiiiiiiiiiiihhhhhhhhhhhhgggggggggggffffffffffeeeeeeeeeddddddddccccccccbbbbbbbbaaaaaaaa---..-
(PID.TID 0000.0001) //    217 -..---aaaaaaabbbbbbbbccccccccddddddddeeeeeeeeefffffffffgggggggggghhhhhhhhhhhhiiiiiiiiiiiiiiijjjjjjjjjjjjjjjjjjjjjjjjjjjjjjjjjjjjjjjjjjjjjjjjjjjjjjjjjjjjjjjjjjjjiiiiiiiiiiiiiiihhhhhhhhhhhhggggggggggfffffffffeeeeeeeeeddddddddccccccccbbbbbbbbaaaaaaa---..-
(PID.TID 0000.0001) //    216 -..---aaaaaaabbbbbbbccccccccddddddddeeeeeeeefffffffffgggggggggghhhhhhhhhhhiiiiiiiiiiiiijjjjjjjjjjjjjjjjjjjjkkkkkkkkkkkkkkkkkkkkkkkkkkkkkkkkkkkkkkjjjjjjjjjjjjjjjjjjjjiiiiiiiiiiiiihhhhhhhhhhhggggggggggfffffffffeeeeeeeeddddddddccccccccbbbbbbbaaaaaaa---..-
(PID.TID 0000.0001) //    215 -..---aaaaaaabbbbbbbcccccccddddddddeeeeeeeeffffffffgggggggggghhhhhhhhhhiiiiiiiiiiiijjjjjjjjjjjjjjjjjkkkkkkkkkkkkkkkkkkkkkkkkkkkkkkkkkkkkkkkkkkkkkkkkkkkkjjjjjjjjjjjjjjjjjiiiiiiiiiiiihhhhhhhhhhggggggggggffffffffeeeeeeeeddddddddcccccccbbbbbbbaaaaaaa---..-
(PID.TID 0000.0001) //    214 -..---aaaaaabbbbbbbccccccccdddddddeeeeeeeeffffffffggggggggghhhhhhhhhiiiiiiiiiiiijjjjjjjjjjjjjjkkkkkkkkkkkkkkkkkkkkkkkkkkkkkkkkkkkkkkkkkkkkkkkkkkkkkkkkkkkkkkkkjjjjjjjjjjjjjjiiiiiiiiiiiihhhhhhhhhgggggggggffffffffeeeeeeeedddddddccccccccbbbbbbbaaaaaa---..-
(PID.TID 0000.0001) //    213 -..--aaaaaaabbbbbbbcccccccdddddddeeeeeeeefffffffggggggggghhhhhhhhhiiiiiiiiiiijjjjjjjjjjjjjkkkkkkkkkkkkkkkkkkkkllllllllllllllllllllllllllllllllkkkkkkkkkkkkkkkkkkkkjjjjjjjjjjjjjiiiiiiiiiiihhhhhhhhhgggggggggfffffffeeeeeeeedddddddcccccccbbbbbbbaaaaaaa--..-
(PID.TID 0000.0001) //    212 -..--aaaaaaabbbbbbbccccccdddddddeeeeeeeffffffffgggggggghhhhhhhhhiiiiiiiiiijjjjjjjjjjjjkkkkkkkkkkkkkkkkllllllllllllllllllllllllllllllllllllllllllllllllkkkkkkkkkkkkkkkkjjjjjjjjjjjjiiiiiiiiiihhhhhhhhhggggggggffffffffeeeeeeedddddddccccccbbbbbbbaaaaaaa--..-
(PID.TID 0000.0001) //    211 -..--aaaaaaabbbbbbcccccccddddddeeeeeeeffffffffgggggggghhhhhhhhiiiiiiiiijjjjjjjjjjjkkkkkkkkkkkkkkkllllllllllllllllllllllllllllllllllllllllllllllllllllllllllkkkkkkkkkkkkkkkjjjjjjjjjjjiiiiiiiiihhhhhhhhggggggggffffffffeeeeeeeddddddcccccccbbbbbbaaaaaaa--..-
(PID.TID 0000.0001) //    210 -..--aaaaaabbbbbbbccccccdddddddeeeeeeefffffffggggggghhhhhhhhiiiiiiiiijjjjjjjjjjkkkkkkkkkkkkkllllllllllllllllllllllmmmmmmmmmmmmmmmmmmmmmmmmllllllllllllllllllllllkkkkkkkkkkkkkjjjjjjjjjjiiiiiiiiihhhhhhhhgggggggfffffffeeeeeeedddddddccccccbbbbbbbaaaaaa--..-
(PID.TID 0000.0001) //    209 -..--aaaaaabbbbbbcccccccddddddeeeeeeefffffffggggggghhhhhhhhiiiiiiiijjjjjjjjjjkkkkkkkkkkklllllllllllllllllmmmmmmmmmmmmmmmmmmmmmmmmmmmmmmmmmmmmmmmmmmlllllllllllllllllkkkkkkkkkkkjjjjjjjjjjiiiiiiiihhhhhhhhgggggggfffffffeeeeeeeddddddcccccccbbbbbbaaaaaa--..-
(PID.TID 0000.0001) //    208 -..--aaaaaabbbbbbccccccddddddeeeeeeefffffffggggggghhhhhhhiiiiiiiijjjjjjjjjkkkkkkkkkkkllllllllllllllmmmmmmmmmmmmmmmmmmmmmmmmmmmmmmmmmmmmmmmmmmmmmmmmmmmmmmllllllllllllllkkkkkkkkkkkjjjjjjjjjiiiiiiiihhhhhhhgggggggfffffffeeeeeeeddddddccccccbbbbbbaaaaaa--..-
(PID.TID 0000.0001) //    207 -..--aaaaaabbbbbbccccccddddddeeeeeefffffffgggggghhhhhhhhiiiiiiijjjjjjjjjkkkkkkkkkklllllllllllllmmmmmmmmmmmmmmmmmmmmmmmmmnnnnnnnnnnnnmmmmmmmmmmmmmmmmmmmmmmmmmlllllllllllllkkkkkkkkkkjjjjjjjjjiiiiiiihhhhhhhhggggggfffffffeeeeeeddddddccccccbbbbbbaaaaaa--..-
(PID.TID 0000.0001) //    206 -..--aaaaaabbbbbccccccddddddeeeeeefffffffgggggghhhhhhhiiiiiiiijjjjjjjjkkkkkkkkkllllllllllllmmmmmmmmmmmmmmmmmnnnnnnnnnnnnnnnnnnnnnnnnnnnnnnnnnnnnmmmmmmmmmmmmmmmmmllllllllllllkkkkkkkkkjjjjjjjjiiiiiiiihhhhhhhggggggfffffffeeeeeeddddddccccccbbbbbaaaaaa--..-
(PID.TID 0000.0001) //    205 -..--aaaaabbbbbbccccccddddddeeeeeeffffffgggggghhhhhhhiiiiiiijjjjjjjjkkkkkkkkklllllllllllmmmmmmmmmmmmmmnnnnnnnnnnnnnnnnnnnnnnnnnnnnnnnnnnnnnnnnnnnnnnnnmmmmmmmmmmmmmmlllllllllllkkkkkkkkkjjjjjjjjiiiiiiihhhhhhhggggggffffffeeeeeeddddddccccccbbbbbbaaaaa--..-
(PID.TID 0000.0001) //    204 -..--aaaaabbbbbbcccccddddddeeeeeeffffffgggggghhhhhhhiiiiiiijjjjjjjkkkkkkkkkllllllllllmmmmmmmmmmmmmnnnnnnnnnnnnnnnnnnnnnnnnnnnnnnnnnnnnnnnnnnnnnnnnnnnnnnnnmmmmmmmmmmmmmllllllllllkkkkkkkkkjjjjjjjiiiiiiihhhhhhhggggggffffffeeeeeeddddddcccccbbbbbbaaaaa--..-
(PID.TID 0000.0001) //    203 -..--aaaaabbbbbbcccccddddddeeeeeffffffgggggghhhhhhhiiiiiijjjjjjjjkkkkkkkklllllllllmmmmmmmmmmmmnnnnnnnnnnnnnnnnnnnoooooooooooooooooooooooooonnnnnnnnnnnnnnnnnnnmmmmmmmmmmmmlllllllllkkkkkkkkjjjjjjjjiiiiiihhhhhhhggggggffffffeeeeeddddddcccccbbbbbbaaaaa--..-
(PID.TID 0000.0001) //    202 -..--aaaaabbbbbccccccdddddeeeeeefffffgggggghhhhhhhiiiiiijjjjjjjkkkkkkkklllllllllmmmmmmmmmmnnnnnnnnnnnnnnnnoooooooooooooooooooooooooooooooooooooooonnnnnnnnnnnnnnnnmmmmmmmmmmlllllllllkkkkkkkkjjjjjjjiiiiiihhhhhhhggggggfffffeeeeeedddddccccccbbbbbaaaaa--..-
(PID.TID 0000.0001) //    201 -..--aaaaabbbbbcccccddddddeeeeeffffffgggggghhhhhhiiiiiijjjjjjjkkkkkkklllllllllmmmmmmmmmmnnnnnnnnnnnnnoooooooooooooooooooooooooooooooooooooooooooooooooonnnnnnnnnnnnnmmmmmmmmmmlllllllllkkkkkkkjjjjjjjiiiiiihhhhhhggggggffffffeeeeeddddddcccccbbbbbaaaaa--..-
(PID.TID 0000.0001) //    200 -..--aaaaabbbbbcccccdddddeeeeeefffffgggggghhhhhhiiiiiijjjjjjkkkkkkkkllllllllmmmmmmmmmnnnnnnnnnnnnooooooooooooooooooooooppppppppppppppoooooooooooooooooooooonnnnnnnnnnnnmmmmmmmmmllllllllkkkkkkkkjjjjjjiiiiiihhhhhhggggggfffffeeeeeedddddcccccbbbbbaaaaa--..-
(PID.TID 0000.0001) //    199 -..--aaaaabbbbbcccccdddddeeeeefffffgggggghhhhhhiiiiiijjjjjjkkkkkkkllllllllmmmmmmmmmnnnnnnnnnnoooooooooooooooooppppppppppppppppppppppppppppppppooooooooooooooooonnnnnnnnnnmmmmmmmmmllllllllkkkkkkkjjjjjjiiiiiihhhhhhggggggfffffeeeeedddddcccccbbbbbaaaaa--..-
(PID.TID 0000.0001) //    198 -..-aaaaabbbbbcccccdddddeeeeeefffffggggghhhhhhiiiiiijjjjjjkkkkkkklllllllmmmmmmmmnnnnnnnnnnooooooooooooooppppppppppppppppppppppppppppppppppppppppppppoooooooooooooonnnnnnnnnnmmmmmmmmlllllllkkkkkkkjjjjjjiiiiiihhhhhhgggggfffffeeeeeedddddcccccbbbbbaaaaa-..-
(PID.TID 0000.0001) //    197 -..-aaaaabbbbbcccccdddddeeeeefffffgggggghhhhhiiiiiijjjjjjkkkkkkllllllllmmmmmmmnnnnnnnnnnooooooooooooppppppppppppppppppppppppppppppppppppppppppppppppppppoooooooooooonnnnnnnnnnmmmmmmmllllllllkkkkkkjjjjjjiiiiiihhhhhggggggfffffeeeeedddddcccccbbbbbaaaaa-..-
(PID.TID 0000.0001) //    196 -..-aaaaabbbbbcccccdddddeeeeefffffggggghhhhhiiiiiijjjjjjkkkkkklllllllmmmmmmmmnnnnnnnnooooooooooopppppppppppppppppppqqqqqqqqqqqqqqqqqqqqqqpppppppppppppppppppooooooooooonnnnnnnnmmmmmmmmlllllllkkkkkkjjjjjjiiiiiihhhhhgggggfffffeeeeedddddcccccbbbbbaaaaa-..-
(PID.TID 0000.0001) //    195 -..-aaaaabbbbbccccdddddeeeeefffffggggghhhhhhiiiiijjjjjjkkkkkklllllllmmmmmmmnnnnnnnnoooooooooopppppppppppppppqqqqqqqqqqqqqqqqqqqqqqqqqqqqqqqqqqqqpppppppppppppppoooooooooonnnnnnnnmmmmmmmlllllllkkkkkkjjjjjjiiiiihhhhhhgggggfffffeeeeedddddccccbbbbbaaaaa-..-
(PID.TID 0000.0001) //    194 -..-aaaaabbbbbccccdddddeeeeefffffggggghhhhhiiiiijjjjjjkkkkkkllllllmmmmmmmnnnnnnnnoooooooooopppppppppppppqqqqqqqqqqqqqqqqqqqqqqqqqqqqqqqqqqqqqqqqqqqqpppppppppppppoooooooooonnnnnnnnmmmmmmmllllllkkkkkkjjjjjjiiiiihhhhhgggggfffffeeeeedddddccccbbbbbaaaaa-..-
(PID.TID 0000.0001) //    193 -..-aaaaabbbbcccccdddddeeeefffffggggghhhhhiiiiijjjjjjkkkkkkllllllmmmmmmmnnnnnnnoooooooooppppppppppppqqqqqqqqqqqqqqqqqqqqqqqqqqqqqqqqqqqqqqqqqqqqqqqqqqqqppppppppppppooooooooonnnnnnnmmmmmmmllllllkkkkkkjjjjjjiiiiihhhhhgggggfffffeeeedddddcccccbbbbaaaaa-..-
(PID.TID 0000.0001) //    192 -..-aaaaabbbbcccccddddeeeeefffffggggghhhhhiiiiijjjjjkkkkkkllllllmmmmmmnnnnnnnnoooooooopppppppppppqqqqqqqqqqqqqqqqqrrrrrrrrrrrrrrrrrrrrrrrrqqqqqqqqqqqqqqqqqpppppppppppoooooooonnnnnnnnmmmmmmllllllkkkkkkjjjjjiiiiihhhhhgggggfffffeeeeeddddcccccbbbbaaaaa-..-
(PID.TID 0000.0001) //    191 -..-aaaaabbbbcccccddddeeeeeffffggggghhhhhiiiiijjjjjkkkkkkllllllmmmmmmnnnnnnnooooooooppppppppppqqqqqqqqqqqqqqrrrrrrrrrrrrrrrrrrrrrrrrrrrrrrrrrrrrqqqqqqqqqqqqqqppppppppppoooooooonnnnnnnmmmmmmllllllkkkkkkjjjjjiiiiihhhhhgggggffffeeeeeddddcccccbbbbaaaaa-..-
(PID.TID 0000.0001) //    190 -..-aaaaabbbbccccdddddeeeefffffggggghhhhiiiiijjjjjkkkkkkllllllmmmmmmnnnnnnnooooooopppppppppqqqqqqqqqqqqqrrrrrrrrrrrrrrrrrrrrrrrrrrrrrrrrrrrrrrrrrrrrqqqqqqqqqqqqqpppppppppooooooonnnnnnnmmmmmmllllllkkkkkkjjjjjiiiiihhhhgggggfffffeeeedddddccccbbbbaaaaa-..-
(PID.TID 0000.0001) //    189 -..-aaaabbbbbccccddddeeeeeffffggggghhhhhiiiiijjjjjkkkkkllllllmmmmmmnnnnnnooooooooppppppppqqqqqqqqqqqrrrrrrrrrrrrrrrrrrrrrrrrrrrrrrrrrrrrrrrrrrrrrrrrrrrrqqqqqqqqqqqppppppppoooooooonnnnnnmmmmmmllllllkkkkkjjjjjiiiiihhhhhgggggffffeeeeeddddccccbbbbbaaaa-..-
(PID.TID 0000.0001) //    188 -..-aaaabbbbbccccddddeeeeeffffggggghhhhiiiiijjjjjkkkkkllllllmmmmmmnnnnnnoooooooppppppppqqqqqqqqqqrrrrrrrrrrrrrrrrrssssssssssssssssssssssssrrrrrrrrrrrrrrrrrqqqqqqqqqqppppppppooooooonnnnnnmmmmmmllllllkkkkkjjjjjiiiiihhhhgggggffffeeeeeddddccccbbbbbaaaa-..-
(PID.TID 0000.0001) //    187 -..-aaaabbbbcccccddddeeeefffffgggghhhhhiiiijjjjjkkkkkllllllmmmmmmnnnnnnooooooopppppppqqqqqqqqqqrrrrrrrrrrrrrssssssssssssssssssssssssssssssssssssrrrrrrrrrrrrrqqqqqqqqqqpppppppooooooonnnnnnmmmmmmllllllkkkkkjjjjjiiiihhhhhggggfffffeeeeddddcccccbbbbaaaa-..-
(PID.TID 0000.0001) //    186 -..-aaaabbbbccccdddddeeeeffffggggghhhhiiiiijjjjjkkkkklllllmmmmmmnnnnnnooooooppppppppqqqqqqqqrrrrrrrrrrrrssssssssssssssssssssssssssssssssssssssssssssrrrrrrrrrrrrqqqqqqqqppppppppoooooonnnnnnmmmmmmlllllkkkkkjjjjjiiiiihhhhgggggffffeeeedddddccccbbbbaaaa-..-
(PID.TID 0000.0001) //    185 -..-aaaabbbbccccddddeeeeeffffgggghhhhhiiiijjjjjkkkkklllllmmmmmmnnnnnooooooopppppppqqqqqqqqrrrrrrrrrrrssssssssssssssssssssssssssssssssssssssssssssssssssrrrrrrrrrrrqqqqqqqqpppppppooooooonnnnnmmmmmmlllllkkkkkjjjjjiiiihhhhhggggffffeeeeeddddccccbbbbaaaa-..-
(PID.TID 0000.0001) //    184 -..-aaaabbbbccccddddeeeefffffgggghhhhiiiiijjjjkkkkklllllmmmmmmnnnnnoooooooppppppqqqqqqqqrrrrrrrrrrsssssssssssssssssttttttttttttttttttttttsssssssssssssssssrrrrrrrrrrqqqqqqqqppppppooooooonnnnnmmmmmmlllllkkkkkjjjjiiiiihhhhggggfffffeeeeddddccccbbbbaaaa-..-
(PID.TID 0000.0001) //    183 -..-aaaabbbbccccddddeeeeffffggggghhhhiiiijjjjjkkkkklllllmmmmmnnnnnoooooopppppppqqqqqqqqrrrrrrrrrssssssssssssssttttttttttttttttttttttttttttttttssssssssssssssrrrrrrrrrqqqqqqqqpppppppoooooonnnnnmmmmmlllllkkkkkjjjjjiiiihhhhgggggffffeeeeddddccccbbbbaaaa-..-
(PID.TID 0000.0001) //    182 -..-aaaabbbbccccddddeeeeffffgggghhhhiiiiijjjjkkkkklllllmmmmmnnnnnoooooopppppppqqqqqqqrrrrrrrrrssssssssssssttttttttttttttttttttttttttttttttttttttttssssssssssssrrrrrrrrrqqqqqqqpppppppoooooonnnnnmmmmmlllllkkkkkjjjjiiiiihhhhggggffffeeeeddddccccbbbbaaaa-..-
(PID.TID 0000.0001) //    181 -..-aaaabbbbccccddddeeeeffffgggghhhhiiiijjjjjkkkklllllmmmmmnnnnnnooooopppppppqqqqqqqrrrrrrrrsssssssssssttttttttttttttttttttttttttttttttttttttttttttttsssssssssssrrrrrrrrqqqqqqqpppppppooooonnnnnnmmmmmlllllkkkkjjjjjiiiihhhhggggffffeeeeddddccccbbbbaaaa-..-
(PID.TID 0000.0001) //    180 -..-aaaabbbbccccdddeeeeffffgggghhhhhiiiijjjjkkkkklllllmmmmnnnnnnoooooppppppqqqqqqqrrrrrrrrssssssssssttttttttttttttttttuuuuuuuuuuuuuuuuttttttttttttttttttssssssssssrrrrrrrrqqqqqqqppppppooooonnnnnnmmmmlllllkkkkkjjjjiiiihhhhhggggffffeeeedddccccbbbbaaaa-..-
(PID.TID 0000.0001) //    179 -..-aaaabbbbcccddddeeeeffffgggghhhhiiiijjjjjkkkklllllmmmmmnnnnnoooooppppppqqqqqqqrrrrrrrssssssssssttttttttttttttuuuuuuuuuuuuuuuuuuuuuuuuuuuuttttttttttttttssssssssssrrrrrrrqqqqqqqppppppooooonnnnnmmmmmlllllkkkkjjjjjiiiihhhhggggffffeeeeddddcccbbbbaaaa-..-
(PID.TID 0000.0001) //    178 -..-aaaabbbccccddddeeeeffffgggghhhhiiiijjjjkkkkkllllmmmmmnnnnnoooooppppppqqqqqqqrrrrrrrsssssssssttttttttttttuuuuuuuuuuuuuuuuuuuuuuuuuuuuuuuuuuuuttttttttttttsssssssssrrrrrrrqqqqqqqppppppooooonnnnnmmmmmllllkkkkkjjjjiiiihhhhggggffffeeeeddddccccbbbaaaa-..-
(PID.TID 0000.0001) //    177 -..-aaaabbbccccddddeeeeffffgggghhhhiiiijjjjkkkklllllmmmmnnnnnoooooopppppqqqqqqrrrrrrrssssssssstttttttttttuuuuuuuuuuuuuuuuuuuuuuuuuuuuuuuuuuuuuuuuuutttttttttttsssssssssrrrrrrrqqqqqqpppppoooooonnnnnmmmmlllllkkkkjjjjiiiihhhhggggffffeeeeddddccccbbbaaaa-..-
(PID.TID 0000.0001) //    176 -..-aaaabbbccccddddeeeffffgggghhhhiiiijjjjkkkkkllllmmmmmnnnnnooooopppppqqqqqqrrrrrrrssssssssttttttttttuuuuuuuuuuuuuuuuuuuuuuuuuuuuuuuuuuuuuuuuuuuuuuuuttttttttttssssssssrrrrrrrqqqqqqpppppooooonnnnnmmmmmllllkkkkkjjjjiiiihhhhggggffffeeeddddccccbbbaaaa-..-
(PID.TID 0000.0001) //    175 -..-aaaabbbccccddddeeeffffgggghhhhiiiijjjjkkkklllllmmmmnnnnnooooopppppqqqqqqrrrrrrrsssssssttttttttttuuuuuuuuuuuuuuuuvvvvvvvvvvvvvvvvvvvvuuuuuuuuuuuuuuuuttttttttttsssssssrrrrrrrqqqqqqpppppooooonnnnnmmmmlllllkkkkjjjjiiiihhhhggggffffeeeddddccccbbbaaaa-..-
(PID.TID 0000.0001) //    174 -..-aaabbbbccccdddeeeeffffgggghhhhiiiijjjjkkkkllllmmmmmnnnnoooooppppppqqqqqrrrrrrrssssssstttttttttuuuuuuuuuuuuuuvvvvvvvvvvvvvvvvvvvvvvvvvvvvuuuuuuuuuuuuuutttttttttsssssssrrrrrrrqqqqqppppppooooonnnnmmmmmllllkkkkjjjjiiiihhhhggggffffeeeedddccccbbbbaaa-..-
(PID.TID 0000.0001) //    173 -..-aaabbbbccccdddeeeeffffggghhhhiiiijjjjkkkklllllmmmmnnnnnooooopppppqqqqqrrrrrrrsssssssttttttttuuuuuuuuuuuuvvvvvvvvvvvvvvvvvvvvvvvvvvvvvvvvvvvvuuuuuuuuuuuuttttttttsssssssrrrrrrrqqqqqpppppooooonnnnnmmmmlllllkkkkjjjjiiiihhhhgggffffeeeedddccccbbbbaaa-..-
(PID.TID 0000.0001) //    172 -..-aaabbbbcccddddeeeefffgggghhhhiiiijjjjkkkkllllmmmmnnnnnooooopppppqqqqqrrrrrrsssssssttttttttuuuuuuuuuuuvvvvvvvvvvvvvvvvvvvvvvvvvvvvvvvvvvvvvvvvvvuuuuuuuuuuuttttttttsssssssrrrrrrqqqqqpppppooooonnnnnmmmmllllkkkkjjjjiiiihhhhggggfffeeeeddddcccbbbbaaa-..-
(PID.TID 0000.0001) //    171 -..-aaabbbbcccddddeeeefffgggghhhhiiiijjjkkkklllllmmmmnnnnooooopppppqqqqqqrrrrrsssssssttttttttuuuuuuuuuuvvvvvvvvvvvvvvvvvvvvvvvvvvvvvvvvvvvvvvvvvvvvvvuuuuuuuuuuttttttttsssssssrrrrrqqqqqqpppppooooonnnnmmmmlllllkkkkjjjiiiihhhhggggfffeeeeddddcccbbbbaaa-..-
(PID.TID 0000.0001) //    170 -..-aaabbbbcccddddeeeffffgggghhhiiiijjjjkkkkllllmmmmnnnnnoooooppppqqqqqqrrrrrrsssssstttttttuuuuuuuuuuvvvvvvvvvvvvvvvvwwwwwwwwwwwwwwwwwwvvvvvvvvvvvvvvvvuuuuuuuuuutttttttssssssrrrrrrqqqqqqppppooooonnnnnmmmmllllkkkkjjjjiiiihhhggggffffeeeddddcccbbbbaaa-..-
(PID.TID 0000.0001) //    169 -..-aaabbbbcccddddeeeffffggghhhhiiiijjjjkkkkllllmmmmnnnnooooopppppqqqqqrrrrrrsssssstttttttuuuuuuuuuvvvvvvvvvvvvvvwwwwwwwwwwwwwwwwwwwwwwwwwwvvvvvvvvvvvvvvuuuuuuuuutttttttssssssrrrrrrqqqqqpppppooooonnnnmmmmllllkkkkjjjjiiiihhhhgggffffeeeddddcccbbbbaaa-..-
(PID.TID 0000.0001) //    168 -..-aaabbbbcccddddeeeffffggghhhhiiiijjjkkkkllllmmmmmnnnnoooopppppqqqqqrrrrrrsssssstttttttuuuuuuuuvvvvvvvvvvvvwwwwwwwwwwwwwwwwwwwwwwwwwwwwwwwwwwvvvvvvvvvvvvuuuuuuuutttttttssssssrrrrrrqqqqqpppppoooonnnnmmmmmllllkkkkjjjiiiihhhhgggffffeeeddddcccbbbbaaa-..-
(PID.TID 0000.0001) //    167 -..-aaabbbbcccdddeeeefffgggghhhhiiijjjjkkkkllllmmmmnnnnooooopppppqqqqqrrrrrsssssstttttttuuuuuuuuvvvvvvvvvvvwwwwwwwwwwwwwwwwwwwwwwwwwwwwwwwwwwwwwwvvvvvvvvvvvuuuuuuuutttttttssssssrrrrrqqqqqpppppooooonnnnmmmmllllkkkkjjjjiiihhhhggggfffeeeedddcccbbbbaaa-..-
(PID.TID 0000.0001) //    166 -..-aaabbbccccdddeeeefffgggghhhiiiijjjjkkkkllllmmmmnnnnoooopppppqqqqqrrrrrsssssstttttttuuuuuuuvvvvvvvvvvvwwwwwwwwwwwwwwwwwwwwwwwwwwwwwwwwwwwwwwwwwwvvvvvvvvvvvuuuuuuutttttttssssssrrrrrqqqqqpppppoooonnnnmmmmllllkkkkjjjjiiiihhhggggfffeeeedddccccbbbaaa-..-
(PID.TID 0000.0001) //    165 -..-aaabbbccccdddeeeefffgggghhhiiiijjjjkkkllllmmmmnnnnoooooppppqqqqqrrrrrsssssstttttttuuuuuuuvvvvvvvvvvwwwwwwwwwwwwwwwwwwwxxxxxxxxwwwwwwwwwwwwwwwwwwwvvvvvvvvvvuuuuuuutttttttssssssrrrrrqqqqqppppooooonnnnmmmmllllkkkjjjjiiiihhhggggfffeeeedddccccbbbaaa-..-
(PID.TID 0000.0001) //    164 -..-aaabbbccccdddeeeefffggghhhhiiiijjjkkkkllllmmmmnnnnoooopppppqqqqqrrrrrssssstttttttuuuuuuuvvvvvvvvvwwwwwwwwwwwwwwwxxxxxxxxxxxxxxxxxxxxwwwwwwwwwwwwwwwvvvvvvvvvuuuuuuutttttttsssssrrrrrqqqqqpppppoooonnnnmmmmllllkkkkjjjiiiihhhhgggfffeeeedddccccbbbaaa-..-
(PID.TID 0000.0001) //    163 -..-aaabbbccccdddeeeffffggghhhhiiijjjjkkkkllllmmmmnnnnooooppppqqqqqrrrrrssssssttttttuuuuuuuvvvvvvvvwwwwwwwwwwwwwxxxxxxxxxxxxxxxxxxxxxxxxxxxxwwwwwwwwwwwwwvvvvvvvvuuuuuuuttttttssssssrrrrrqqqqqppppoooonnnnmmmmllllkkkkjjjjiiihhhhgggffffeeedddccccbbbaaa-..-
(PID.TID 0000.0001) //    162 -..-aaabbbccccdddeeeffffggghhhhiiijjjjkkkllllmmmmnnnnoooopppppqqqqrrrrrssssssttttttuuuuuuuvvvvvvvvwwwwwwwwwwwwxxxxxxxxxxxxxxxxxxxxxxxxxxxxxxxxwwwwwwwwwwwwvvvvvvvvuuuuuuuttttttssssssrrrrrqqqqpppppoooonnnnmmmmllllkkkjjjjiiihhhhgggffffeeedddccccbbbaaa-..-
(PID.TID 0000.0001) //    161 -..-aaabbbccccdddeeeffffggghhhiiiijjjjkkkllllmmmmnnnnooooppppqqqqqrrrrrsssssttttttuuuuuuuvvvvvvvvwwwwwwwwwwxxxxxxxxxxxxxxxxxxxxxxxxxxxxxxxxxxxxxxwwwwwwwwwwvvvvvvvvuuuuuuuttttttsssssrrrrrqqqqqppppoooonnnnmmmmllllkkkjjjjiiiihhhgggffffeeedddccccbbbaaa-..-
(PID.TID 0000.0001) //    160 -..-aaabbbcccddddeeefffgggghhhiiiijjjkkkkllllmmmnnnnoooooppppqqqqrrrrrsssssttttttuuuuuuuvvvvvvvwwwwwwwwwwwxxxxxxxxxxxxxxxxxxxxxxxxxxxxxxxxxxxxxxxxwwwwwwwwwwwvvvvvvvuuuuuuuttttttsssssrrrrrqqqqppppooooonnnnmmmllllkkkkjjjiiiihhhggggfffeeeddddcccbbbaaa-..-
(PID.TID 0000.0001) //    159 -..-aaabbbcccddddeeefffgggghhhiiiijjjkkkklllmmmmnnnnooooppppqqqqqrrrrrssssstttttuuuuuuuvvvvvvvwwwwwwwwwwxxxxxxxxxxxxxxxxxxxxxxxxxxxxxxxxxxxxxxxxxxxxwwwwwwwwwwvvvvvvvuuuuuuutttttsssssrrrrrqqqqqppppoooonnnnmmmmlllkkkkjjjiiiihhhggggfffeeeddddcccbbbaaa-..-
(PID.TID 0000.0001) //    158 -..-aaabbbcccddddeeefffggghhhhiiijjjjkkkllllmmmmnnnnooooppppqqqqrrrrrsssssttttttuuuuuuvvvvvvvwwwwwwwwwxxxxxxxxxxxxxxxxxyyyyyyyyyyyyyyxxxxxxxxxxxxxxxxxwwwwwwwwwvvvvvvvuuuuuuttttttsssssrrrrrqqqqppppoooonnnnmmmmllllkkkjjjjiiihhhhgggfffeeeddddcccbbbaaa-..-
(PID.TID 0000.0001) //    157 -..-aaabbbcccdddeeeefffggghhhhiiijjjjkkkllllmmmmnnnoooopppppqqqqrrrrrssssstttttuuuuuuvvvvvvvwwwwwwwwwxxxxxxxxxxxxxxyyyyyyyyyyyyyyyyyyyyyyxxxxxxxxxxxxxxwwwwwwwwwvvvvvvvuuuuuutttttsssssrrrrrqqqqpppppoooonnnmmmmllllkkkjjjjiiihhhhgggfffeeeedddcccbbbaaa-..-
(PID.TID 0000.0001) //    156 -..-aaabbbcccdddeeeefffggghhhhiiijjjkkkkllllmmmnnnnooooppppqqqqqrrrrssssstttttuuuuuuvvvvvvvwwwwwwwwwxxxxxxxxxxxxyyyyyyyyyyyyyyyyyyyyyyyyyyyyxxxxxxxxxxxxwwwwwwwwwvvvvvvvuuuuuutttttsssssrrrrqqqqqppppoooonnnnmmmllllkkkkjjjiiihhhhgggfffeeeedddcccbbbaaa-..-
(PID.TID 0000.0001) //    155 -..-aaabbbcccdddeeeefffggghhhiiiijjjkkkklllmmmmnnnnooooppppqqqqrrrrrssssstttttuuuuuuvvvvvvwwwwwwwwxxxxxxxxxxxxyyyyyyyyyyyyyyyyyyyyyyyyyyyyyyyyxxxxxxxxxxxxwwwwwwwwvvvvvvuuuuuutttttsssssrrrrrqqqqppppoooonnnnmmmmlllkkkkjjjiiiihhhgggfffeeeedddcccbbbaaa-..-
(PID.TID 0000.0001) //    154 -..-aaabbbcccdddeeeffffggghhhiiiijjjkkkklllmmmmnnnnooopppppqqqqrrrrssssstttttuuuuuuvvvvvvvwwwwwwwxxxxxxxxxxxyyyyyyyyyyyyyyyyyyyyyyyyyyyyyyyyyyyyxxxxxxxxxxxwwwwwwwvvvvvvvuuuuuutttttsssssrrrrqqqqpppppooonnnnmmmmlllkkkkjjjiiiihhhgggffffeeedddcccbbbaaa-..-
(PID.TID 0000.0001) //    153 -..-aaabbbcccdddeeeffffggghhhiiijjjjkkkllllmmmmnnnooooppppqqqqrrrrrssssstttttuuuuuvvvvvvvwwwwwwwxxxxxxxxxxxyyyyyyyyyyyyyyyyyyyyyyyyyyyyyyyyyyyyyyxxxxxxxxxxxwwwwwwwvvvvvvvuuuuutttttsssssrrrrrqqqqppppoooonnnmmmmllllkkkjjjjiiihhhgggffffeeedddcccbbbaaa-..-
(PID.TID 0000.0001) //    152 -..-aaabbbcccdddeeefffgggghhhiiijjjjkkkllllmmmnnnnooooppppqqqqrrrrssssstttttuuuuuuvvvvvvwwwwwwwxxxxxxxxxxyyyyyyyyyyyyyyyyyyyyyyyyyyyyyyyyyyyyyyyyyyxxxxxxxxxxwwwwwwwvvvvvvuuuuuutttttsssssrrrrqqqqppppoooonnnnmmmllllkkkjjjjiiihhhggggfffeeedddcccbbbaaa-..-
(PID.TID 0000.0001) //    151 -..-aaabbbcccdddeeefffgggghhhiiijjjjkkklllmmmmnnnnooooppppqqqqrrrrssssstttttuuuuuvvvvvvwwwwwwwwxxxxxxxxxyyyyyyyyyyyyyyyyyyyyyyyyyyyyyyyyyyyyyyyyyyyyxxxxxxxxxwwwwwwwwvvvvvvuuuuutttttsssssrrrrqqqqppppoooonnnnmmmmlllkkkjjjjiiihhhggggfffeeedddcccbbbaaa-..-
(PID.TID 0000.0001) //    150 -..-aaabbbcccdddeeefffggghhhhiiijjjkkkklllmmmmnnnnoooppppqqqqrrrrrsssstttttuuuuuuvvvvvvwwwwwwwxxxxxxxxxyyyyyyyyyyyyyyyyzzzzzzzzzzzzzzyyyyyyyyyyyyyyyyxxxxxxxxxwwwwwwwvvvvvvuuuuuutttttssssrrrrrqqqqppppooonnnnmmmmlllkkkkjjjiiihhhhgggfffeeedddcccbbbaaa-..-
(PID.TID 0000.0001) //    149 -..-aaabbbcccdddeeefffggghhhhiiijjjkkkklllmmmmnnnooooppppqqqqrrrrssssstttttuuuuuvvvvvvwwwwwwwxxxxxxxxxyyyyyyyyyyyyyyzzzzzzzzzzzzzzzzzzzzyyyyyyyyyyyyyyxxxxxxxxxwwwwwwwvvvvvvuuuuutttttsssssrrrrqqqqppppoooonnnmmmmlllkkkkjjjiiihhhhgggfffeeedddcccbbbaaa-..-
(PID.TID 0000.0001) //    148 -..-aaabbbcccdddeeefffggghhhhiiijjjkkkllllmmmnnnnooooppppqqqqrrrrsssssttttuuuuuuvvvvvvwwwwwwxxxxxxxxxyyyyyyyyyyyyyzzzzzzzzzzzzzzzzzzzzzzzzyyyyyyyyyyyyyxxxxxxxxxwwwwwwvvvvvvuuuuuuttttsssssrrrrqqqqppppoooonnnnmmmllllkkkjjjiiihhhhgggfffeeedddcccbbbaaa-..-
(PID.TID 0000.0001) //    147 -..-aaabbbcccdddeeefffggghhhiiiijjjkkkllllmmmnnnnooooppppqqqqrrrrsssstttttuuuuuvvvvvvwwwwwwwxxxxxxxxyyyyyyyyyyyyzzzzzzzzzzzzzzzzzzzzzzzzzzzzyyyyyyyyyyyyxxxxxxxxwwwwwwwvvvvvvuuuuutttttssssrrrrqqqqppppoooonnnnmmmllllkkkjjjiiiihhhgggfffeeedddcccbbbaaa-..-
(PID.TID 0000.0001) //    146 -..-aaabbbcccdddeeefffggghhhiiiijjjkkkllllmmmnnnnoooppppqqqqrrrrssssstttttuuuuuvvvvvvwwwwwwxxxxxxxxyyyyyyyyyyyzzzzzzzzzzzzzzzzzzzzzzzzzzzzzzzzyyyyyyyyyyyxxxxxxxxwwwwwwvvvvvvuuuuutttttsssssrrrrqqqqppppooonnnnmmmllllkkkjjjiiiihhhgggfffeeedddcccbbbaaa-..-
(PID.TID 0000.0001) //    145 -..-aaabbbcccdddeeefffggghhhiiijjjjkkklllmmmmnnnnoooppppqqqqrrrrsssssttttuuuuuvvvvvvwwwwwwwxxxxxxxyyyyyyyyyyyzzzzzzzzzzzzzzzzzzzzzzzzzzzzzzzzzzyyyyyyyyyyyxxxxxxxwwwwwwwvvvvvvuuuuuttttsssssrrrrqqqqppppooonnnnmmmmlllkkkjjjjiiihhhgggfffeeedddcccbbbaaa-..-
(PID.TID 0000.0001) //    144 -..-aaabbbcccdddeeefffggghhhiiijjjjkkklllmmmmnnnooooppppqqqqrrrrsssstttttuuuuuvvvvvvwwwwwwxxxxxxxxyyyyyyyyyyzzzzzzzzzzzzzzzzzzzzzzzzzzzzzzzzzzzzyyyyyyyyyyxxxxxxxxwwwwwwvvvvvvuuuuutttttssssrrrrqqqqppppoooonnnmmmmlllkkkjjjjiiihhhgggfffeeedddcccbbbaaa-..-
(PID.TID 0000.0001) //    143 -..-aaabbbcccdddeeefffggghhhiiijjjkkkklllmmmmnnnooooppppqqqqrrrrsssstttttuuuuuvvvvvwwwwwwxxxxxxxxyyyyyyyyyyzzzzzzzzzzzzzzzzzzzzzzzzzzzzzzzzzzzzzzyyyyyyyyyyxxxxxxxxwwwwwwvvvvvuuuuutttttssssrrrrqqqqppppoooonnnmmmmlllkkkkjjjiiihhhgggfffeeedddcccbbbaaa-..-
(PID.TID 0000.0001) //    142 -..-aaabbbcccdddeeefffggghhhiiijjjkkkklllmmmnnnnoooopppqqqqrrrrsssssttttuuuuuvvvvvvwwwwwwxxxxxxxyyyyyyyyyyzzzzzzzzzzzzzzzzzzzzzzzzzzzzzzzzzzzzzzzzyyyyyyyyyyxxxxxxxwwwwwwvvvvvvuuuuuttttsssssrrrrqqqqpppoooonnnnmmmlllkkkkjjjiiihhhgggfffeeedddcccbbbaaa-..-
(PID.TID 0000.0001) //    141 -..-aaabbbcccdddeeefffggghhhiiijjjkkkklllmmmnnnnoooopppqqqqrrrrsssssttttuuuuuvvvvvwwwwwwwxxxxxxxyyyyyyyyyzzzzzzzzzzzzzzzzzzzzzzzzzzzzzzzzzzzzzzzzzzyyyyyyyyyxxxxxxxwwwwwwwvvvvvuuuuuttttsssssrrrrqqqqpppoooonnnnmmmlllkkkkjjjiiihhhgggfffeeedddcccbbbaaa-..-
(PID.TID 0000.0001) //    140 -..-aaabbcccddddeeefffggghhhiiijjjkkkllllmmmnnnnoooppppqqqqrrrrsssstttttuuuuuvvvvvwwwwwwxxxxxxxyyyyyyyyyzzzzzzzzzzzzzzzzzzzzzzzzzzzzzzzzzzzzzzzzzzzzyyyyyyyyyxxxxxxxwwwwwwvvvvvuuuuutttttssssrrrrqqqqppppooonnnnmmmllllkkkjjjiiihhhgggfffeeeddddcccbbaaa-..-
(PID.TID 0000.0001) //    139 -..-aabbbcccdddeeeffffggghhhiiijjjkkkllllmmmnnnnoooppppqqqqrrrrsssstttttuuuuuvvvvvwwwwwwxxxxxxxyyyyyyyyyzzzzzzzzzzzzzzzzz++++++++++zzzzzzzzzzzzzzzzzyyyyyyyyyxxxxxxxwwwwwwvvvvvuuuuutttttssssrrrrqqqqppppooonnnnmmmllllkkkjjjiiihhhgggffffeeedddcccbbbaa-..-
(PID.TID 0000.0001) //    138 -..-aabbbcccdddeeeffffggghhhiiijjjkkkllllmmmnnnnoooppppqqqqrrrrssssttttuuuuuvvvvvvwwwwwxxxxxxxyyyyyyyyyzzzzzzzzzzzzzzzz++++++++++++++zzzzzzzzzzzzzzzzyyyyyyyyyxxxxxxxwwwwwvvvvvvuuuuuttttssssrrrrqqqqppppooonnnnmmmllllkkkjjjiiihhhgggffffeeedddcccbbbaa-..-
(PID.TID 0000.0001) //    137 -..-aabbbcccdddeeefffgggghhhiiijjjkkkllllmmmnnnooooppppqqqqrrrrssssttttuuuuuvvvvvwwwwwwxxxxxxxyyyyyyyyyzzzzzzzzzzzzzz++++++++++++++++++zzzzzzzzzzzzzzyyyyyyyyyxxxxxxxwwwwwwvvvvvuuuuuttttssssrrrrqqqqppppoooonnnmmmllllkkkjjjiiihhhggggfffeeedddcccbbbaa-..-
(PID.TID 0000.0001) //    136 -..-aabbbcccdddeeefffggghhhhiiijjjkkklllmmmmnnnooooppppqqqrrrrsssssttttuuuuuvvvvvwwwwwwxxxxxxxyyyyyyyyzzzzzzzzzzzzzz++++++++++++++++++++zzzzzzzzzzzzzzyyyyyyyyxxxxxxxwwwwwwvvvvvuuuuuttttsssssrrrrqqqppppoooonnnmmmmlllkkkjjjiiihhhhgggfffeeedddcccbbbaa-..-
(PID.TID 0000.0001) //    135 -..-aabbbcccdddeeefffggghhhhiiijjjkkklllmmmmnnnoooopppqqqqrrrrsssstttttuuuuuvvvvvwwwwwwxxxxxxyyyyyyyyyzzzzzzzzzzzzz++++++++++++++++++++++zzzzzzzzzzzzzyyyyyyyyyxxxxxxwwwwwwvvvvvuuuuutttttssssrrrrqqqqpppoooonnnmmmmlllkkkjjjiiihhhhgggfffeeedddcccbbbaa-..-
(PID.TID 0000.0001) //    134 -..-aabbbcccdddeeefffggghhhiiiijjjkkklllmmmmnnnoooopppqqqqrrrrsssstttttuuuuvvvvvvwwwwwxxxxxxxyyyyyyyyzzzzzzzzzzzzz++++++++++++++++++++++++zzzzzzzzzzzzzyyyyyyyyxxxxxxxwwwwwvvvvvvuuuutttttssssrrrrqqqqpppoooonnnmmmmlllkkkjjjiiiihhhgggfffeeedddcccbbbaa-..-
(PID.TID 0000.0001) //    133 a..aaabbbcccdddeeefffggghhhiiiijjjkkklllmmmmnnnoooopppqqqqrrrrsssstttttuuuuvvvvvwwwwwwxxxxxxxyyyyyyyyzzzzzzzzzzzz++++++++++++++++++++++++++zzzzzzzzzzzzyyyyyyyyxxxxxxxwwwwwwvvvvvuuuutttttssssrrrrqqqqpppoooonnnmmmmlllkkkjjjiiiihhhgggfffeeedddcccbbbaaa..a
(PID.TID 0000.0001) //    132 a..aaabbbcccdddeeefffggghhhiiiijjjkkklllmmmmnnnoooopppqqqqrrrrssssttttuuuuuvvvvvwwwwwwxxxxxxxyyyyyyyyzzzzzzzzzzzz++++++++++++++++++++++++++zzzzzzzzzzzzyyyyyyyyxxxxxxxwwwwwwvvvvvuuuuuttttssssrrrrqqqqpppoooonnnmmmmlllkkkjjjiiiihhhgggfffeeedddcccbbbaaa..a
(PID.TID 0000.0001) //    131 a..aaabbbcccdddeeefffggghhhiiiijjjkkklllmmmmnnnoooppppqqqqrrrrssssttttuuuuuvvvvvwwwwwwxxxxxxyyyyyyyyzzzzzzzzzzzz++++++++++++++++++++++++++++zzzzzzzzzzzzyyyyyyyyxxxxxxwwwwwwvvvvvuuuuuttttssssrrrrqqqqppppooonnnmmmmlllkkkjjjiiiihhhgggfffeeedddcccbbbaaa..a
(PID.TID 0000.0001) //    130 a..aaabbbcccdddeeefffggghhhiiijjjjkkklllmmmnnnnoooppppqqqqrrrrssssttttuuuuuvvvvvwwwwwwxxxxxxyyyyyyyyzzzzzzzzzzzz++++++++++++++++++++++++++++zzzzzzzzzzzzyyyyyyyyxxxxxxwwwwwwvvvvvuuuuuttttssssrrrrqqqqppppooonnnnmmmlllkkkjjjjiiihhhgggfffeeedddcccbbbaaa..a
(PID.TID 0000.0001) //    129 a..aaabbbcccdddeeefffggghhhiiijjjjkkklllmmmnnnnoooppppqqqqrrrrssssttttuuuuuvvvvvwwwwwwxxxxxxyyyyyyyyzzzzzzzzzzz++++++++++++++++++++++++++++++zzzzzzzzzzzyyyyyyyyxxxxxxwwwwwwvvvvvuuuuuttttssssrrrrqqqqppppooonnnnmmmlllkkkjjjjiiihhhgggfffeeedddcccbbbaaa..a
(PID.TID 0000.0001) //    128 a..aaabbbcccdddeeefffggghhhiiijjjjkkklllmmmnnnnoooppppqqqqrrrrssssttttuuuuuvvvvvwwwwwxxxxxxxyyyyyyyyzzzzzzzzzzz++++++++++++++++++++++++++++++zzzzzzzzzzzyyyyyyyyxxxxxxxwwwwwvvvvvuuuuuttttssssrrrrqqqqppppooonnnnmmmlllkkkjjjjiiihhhgggfffeeedddcccbbbaaa..a
(PID.TID 0000.0001) //    127 a..aaabbbcccdddeeefffggghhhiiijjjjkkklllmmmnnnnoooppppqqqqrrrrssssttttuuuuuvvvvvwwwwwxxxxxxxyyyyyyyyzzzzzzzzzzz++++++++++++++++++++++++++++++zzzzzzzzzzzyyyyyyyyxxxxxxxwwwwwvvvvvuuuuuttttssssrrrrqqqqppppooonnnnmmmlllkkkjjjjiiihhhgggfffeeedddcccbbbaaa..a
(PID.TID 0000.0001) //    126 a..aaabbbcccdddeeefffggghhhiiijjjjkkklllmmmnnnnoooppppqqqqrrrrssssttttuuuuuvvvvvwwwwwxxxxxxxyyyyyyyyzzzzzzzzzzz++++++++++++++++++++++++++++++zzzzzzzzzzzyyyyyyyyxxxxxxxwwwwwvvvvvuuuuuttttssssrrrrqqqqppppooonnnnmmmlllkkkjjjjiiihhhgggfffeeedddcccbbbaaa..a
(PID.TID 0000.0001) //    125 a..aaabbbcccdddeeefffggghhhiiijjjjkkklllmmmnnnnoooppppqqqqrrrrssssttttuuuuuvvvvvwwwwwxxxxxxxyyyyyyyyzzzzzzzzzzz++++++++++++++++++++++++++++++zzzzzzzzzzzyyyyyyyyxxxxxxxwwwwwvvvvvuuuuuttttssssrrrrqqqqppppooonnnnmmmlllkkkjjjjiiihhhgggfffeeedddcccbbbaaa..a
(PID.TID 0000.0001) //    124 a..aaabbbcccdddeeefffggghhhiiijjjjkkklllmmmnnnnoooppppqqqqrrrrssssttttuuuuuvvvvvwwwwwxxxxxxxyyyyyyyyzzzzzzzzzzz++++++++++++++++++++++++++++++zzzzzzzzzzzyyyyyyyyxxxxxxxwwwwwvvvvvuuuuuttttssssrrrrqqqqppppooonnnnmmmlllkkkjjjjiiihhhgggfffeeedddcccbbbaaa..a
(PID.TID 0000.0001) //    123 a..aaabbbcccdddeeefffggghhhiiijjjjkkklllmmmnnnnoooppppqqqqrrrrssssttttuuuuuvvvvvwwwwwxxxxxxxyyyyyyyyzzzzzzzzzzz++++++++++++++++++++++++++++++zzzzzzzzzzzyyyyyyyyxxxxxxxwwwwwvvvvvuuuuuttttssssrrrrqqqqppppooonnnnmmmlllkkkjjjjiiihhhgggfffeeedddcccbbbaaa..a
(PID.TID 0000.0001) //    122 a..aaabbbcccdddeeefffggghhhiiijjjjkkklllmmmnnnnoooppppqqqqrrrrssssttttuuuuuvvvvvwwwwwxxxxxxxyyyyyyyyzzzzzzzzzzz++++++++++++++++++++++++++++++zzzzzzzzzzzyyyyyyyyxxxxxxxwwwwwvvvvvuuuuuttttssssrrrrqqqqppppooonnnnmmmlllkkkjjjjiiihhhgggfffeeedddcccbbbaaa..a
(PID.TID 0000.0001) //    121 a..aaabbbcccdddeeefffggghhhiiijjjjkkklllmmmnnnnoooppppqqqqrrrrssssttttuuuuuvvvvvwwwwwxxxxxxxyyyyyyyyzzzzzzzzzzz++++++++++++++++++++++++++++++zzzzzzzzzzzyyyyyyyyxxxxxxxwwwwwvvvvvuuuuuttttssssrrrrqqqqppppooonnnnmmmlllkkkjjjjiiihhhgggfffeeedddcccbbbaaa..a
(PID.TID 0000.0001) //    120 a..aaabbbcccdddeeefffggghhhiiijjjjkkklllmmmnnnnoooppppqqqqrrrrssssttttuuuuuvvvvvwwwwwwxxxxxxyyyyyyyyzzzzzzzzzzz++++++++++++++++++++++++++++++zzzzzzzzzzzyyyyyyyyxxxxxxwwwwwwvvvvvuuuuuttttssssrrrrqqqqppppooonnnnmmmlllkkkjjjjiiihhhgggfffeeedddcccbbbaaa..a
(PID.TID 0000.0001) //    119 a..aaabbbcccdddeeefffggghhhiiijjjjkkklllmmmnnnnoooppppqqqqrrrrssssttttuuuuuvvvvvwwwwwwxxxxxxyyyyyyyyzzzzzzzzzzzz++++++++++++++++++++++++++++zzzzzzzzzzzzyyyyyyyyxxxxxxwwwwwwvvvvvuuuuuttttssssrrrrqqqqppppooonnnnmmmlllkkkjjjjiiihhhgggfffeeedddcccbbbaaa..a
(PID.TID 0000.0001) //    118 a..aaabbbcccdddeeefffggghhhiiiijjjkkklllmmmmnnnoooppppqqqqrrrrssssttttuuuuuvvvvvwwwwwwxxxxxxyyyyyyyyzzzzzzzzzzzz++++++++++++++++++++++++++++zzzzzzzzzzzzyyyyyyyyxxxxxxwwwwwwvvvvvuuuuuttttssssrrrrqqqqppppooonnnmmmmlllkkkjjjiiiihhhgggfffeeedddcccbbbaaa..a
(PID.TID 0000.0001) //    117 a..aaabbbcccdddeeefffggghhhiiiijjjkkklllmmmmnnnoooopppqqqqrrrrssssttttuuuuuvvvvvwwwwwwxxxxxxxyyyyyyyyzzzzzzzzzzzz++++++++++++++++++++++++++zzzzzzzzzzzzyyyyyyyyxxxxxxxwwwwwwvvvvvuuuuuttttssssrrrrqqqqpppoooonnnmmmmlllkkkjjjiiiihhhgggfffeeedddcccbbbaaa..a
(PID.TID 0000.0001) //    116 a..aaabbbcccdddeeefffggghhhiiiijjjkkklllmmmmnnnoooopppqqqqrrrrsssstttttuuuuvvvvvwwwwwwxxxxxxxyyyyyyyyzzzzzzzzzzzz++++++++++++++++++++++++++zzzzzzzzzzzzyyyyyyyyxxxxxxxwwwwwwvvvvvuuuutttttssssrrrrqqqqpppoooonnnmmmmlllkkkjjjiiiihhhgggfffeeedddcccbbbaaa..a
(PID.TID 0000.0001) //    115 -..-aabbbcccdddeeefffggghhhiiiijjjkkklllmmmmnnnoooopppqqqqrrrrsssstttttuuuuvvvvvvwwwwwxxxxxxxyyyyyyyyzzzzzzzzzzzzz++++++++++++++++++++++++zzzzzzzzzzzzzyyyyyyyyxxxxxxxwwwwwvvvvvvuuuutttttssssrrrrqqqqpppoooonnnmmmmlllkkkjjjiiiihhhgggfffeeedddcccbbbaa-..-
(PID.TID 0000.0001) //    114 -..-aabbbcccdddeeefffggghhhhiiijjjkkklllmmmmnnnoooopppqqqqrrrrsssstttttuuuuuvvvvvwwwwwwxxxxxxyyyyyyyyyzzzzzzzzzzzzz++++++++++++++++++++++zzzzzzzzzzzzzyyyyyyyyyxxxxxxwwwwwwvvvvvuuuuutttttssssrrrrqqqqpppoooonnnmmmmlllkkkjjjiiihhhhgggfffeeedddcccbbbaa-..-
(PID.TID 0000.0001) //    113 -..-aabbbcccdddeeefffggghhhhiiijjjkkklllmmmmnnnooooppppqqqrrrrsssssttttuuuuuvvvvvwwwwwwxxxxxxxyyyyyyyyzzzzzzzzzzzzzz++++++++++++++++++++zzzzzzzzzzzzzzyyyyyyyyxxxxxxxwwwwwwvvvvvuuuuuttttsssssrrrrqqqppppoooonnnmmmmlllkkkjjjiiihhhhgggfffeeedddcccbbbaa-..-
(PID.TID 0000.0001) //    112 -..-aabbbcccdddeeefffgggghhhiiijjjkkkllllmmmnnnooooppppqqqqrrrrssssttttuuuuuvvvvvwwwwwwxxxxxxxyyyyyyyyyzzzzzzzzzzzzzz++++++++++++++++++zzzzzzzzzzzzzzyyyyyyyyyxxxxxxxwwwwwwvvvvvuuuuuttttssssrrrrqqqqppppoooonnnmmmllllkkkjjjiiihhhggggfffeeedddcccbbbaa-..-
(PID.TID 0000.0001) //    111 -..-aabbbcccdddeeeffffggghhhiiijjjkkkllllmmmnnnnoooppppqqqqrrrrssssttttuuuuuvvvvvvwwwwwxxxxxxxyyyyyyyyyzzzzzzzzzzzzzzzz++++++++++++++zzzzzzzzzzzzzzzzyyyyyyyyyxxxxxxxwwwwwvvvvvvuuuuuttttssssrrrrqqqqppppooonnnnmmmllllkkkjjjiiihhhgggffffeeedddcccbbbaa-..-
(PID.TID 0000.0001) //    110 -..-aabbbcccdddeeeffffggghhhiiijjjkkkllllmmmnnnnoooppppqqqqrrrrsssstttttuuuuuvvvvvwwwwwwxxxxxxxyyyyyyyyyzzzzzzzzzzzzzzzzz++++++++++zzzzzzzzzzzzzzzzzyyyyyyyyyxxxxxxxwwwwwwvvvvvuuuuutttttssssrrrrqqqqppppooonnnnmmmllllkkkjjjiiihhhgggffffeeedddcccbbbaa-..-
(PID.TID 0000.0001) //    109 -..-aaabbcccddddeeefffggghhhiiijjjkkkllllmmmnnnnoooppppqqqqrrrrsssstttttuuuuuvvvvvwwwwwwxxxxxxxyyyyyyyyyzzzzzzzzzzzzzzzzzzzzzzzzzzzzzzzzzzzzzzzzzzzzyyyyyyyyyxxxxxxxwwwwwwvvvvvuuuuutttttssssrrrrqqqqppppooonnnnmmmllllkkkjjjiiihhhgggfffeeeddddcccbbaaa-..-
(PID.TID 0000.0001) //    108 -..-aaabbbcccdddeeefffggghhhiiijjjkkkklllmmmnnnnoooopppqqqqrrrrsssssttttuuuuuvvvvvwwwwwwwxxxxxxxyyyyyyyyyzzzzzzzzzzzzzzzzzzzzzzzzzzzzzzzzzzzzzzzzzzyyyyyyyyyxxxxxxxwwwwwwwvvvvvuuuuuttttsssssrrrrqqqqpppoooonnnnmmmlllkkkkjjjiiihhhgggfffeeedddcccbbbaaa-..-
(PID.TID 0000.0001) //    107 -..-aaabbbcccdddeeefffggghhhiiijjjkkkklllmmmnnnnoooopppqqqqrrrrsssssttttuuuuuvvvvvvwwwwwwxxxxxxxyyyyyyyyyyzzzzzzzzzzzzzzzzzzzzzzzzzzzzzzzzzzzzzzzzyyyyyyyyyyxxxxxxxwwwwwwvvvvvvuuuuuttttsssssrrrrqqqqpppoooonnnnmmmlllkkkkjjjiiihhhgggfffeeedddcccbbbaaa-..-
(PID.TID 0000.0001) //    106 -..-aaabbbcccdddeeefffggghhhiiijjjkkkklllmmmmnnnooooppppqqqqrrrrsssstttttuuuuuvvvvvwwwwwwxxxxxxxxyyyyyyyyyyzzzzzzzzzzzzzzzzzzzzzzzzzzzzzzzzzzzzzzyyyyyyyyyyxxxxxxxxwwwwwwvvvvvuuuuutttttssssrrrrqqqqppppoooonnnmmmmlllkkkkjjjiiihhhgggfffeeedddcccbbbaaa-..-
(PID.TID 0000.0001) //    105 -..-aaabbbcccdddeeefffggghhhiiijjjjkkklllmmmmnnnooooppppqqqqrrrrsssstttttuuuuuvvvvvvwwwwwwxxxxxxxxyyyyyyyyyyzzzzzzzzzzzzzzzzzzzzzzzzzzzzzzzzzzzzyyyyyyyyyyxxxxxxxxwwwwwwvvvvvvuuuuutttttssssrrrrqqqqppppoooonnnmmmmlllkkkjjjjiiihhhgggfffeeedddcccbbbaaa-..-
(PID.TID 0000.0001) //    104 -..-aaabbbcccdddeeefffggghhhiiijjjjkkklllmmmmnnnnoooppppqqqqrrrrsssssttttuuuuuvvvvvvwwwwwwwxxxxxxxyyyyyyyyyyyzzzzzzzzzzzzzzzzzzzzzzzzzzzzzzzzzzyyyyyyyyyyyxxxxxxxwwwwwwwvvvvvvuuuuuttttsssssrrrrqqqqppppooonnnnmmmmlllkkkjjjjiiihhhgggfffeeedddcccbbbaaa-..-
(PID.TID 0000.0001) //    103 -..-aaabbbcccdddeeefffggghhhiiiijjjkkkllllmmmnnnnoooppppqqqqrrrrssssstttttuuuuuvvvvvvwwwwwwxxxxxxxxyyyyyyyyyyyzzzzzzzzzzzzzzzzzzzzzzzzzzzzzzzzyyyyyyyyyyyxxxxxxxxwwwwwwvvvvvvuuuuutttttsssssrrrrqqqqppppooonnnnmmmllllkkkjjjiiiihhhgggfffeeedddcccbbbaaa-..-
(PID.TID 0000.0001) //    102 -..-aaabbbcccdddeeefffggghhhiiiijjjkkkllllmmmnnnnooooppppqqqqrrrrsssstttttuuuuuvvvvvvwwwwwwwxxxxxxxxyyyyyyyyyyyyzzzzzzzzzzzzzzzzzzzzzzzzzzzzyyyyyyyyyyyyxxxxxxxxwwwwwwwvvvvvvuuuuutttttssssrrrrqqqqppppoooonnnnmmmllllkkkjjjiiiihhhgggfffeeedddcccbbbaaa-..-
(PID.TID 0000.0001) //    101 -..-aaabbbcccdddeeefffggghhhhiiijjjkkkllllmmmnnnnooooppppqqqqrrrrsssssttttuuuuuuvvvvvvwwwwwwxxxxxxxxxyyyyyyyyyyyyyzzzzzzzzzzzzzzzzzzzzzzzzyyyyyyyyyyyyyxxxxxxxxxwwwwwwvvvvvvuuuuuuttttsssssrrrrqqqqppppoooonnnnmmmllllkkkjjjiiihhhhgggfffeeedddcccbbbaaa-..-
(PID.TID 0000.0001) //    100 -..-aaabbbcccdddeeefffggghhhhiiijjjkkkklllmmmmnnnooooppppqqqqrrrrssssstttttuuuuuvvvvvvwwwwwwwxxxxxxxxxyyyyyyyyyyyyyyzzzzzzzzzzzzzzzzzzzzyyyyyyyyyyyyyyxxxxxxxxxwwwwwwwvvvvvvuuuuutttttsssssrrrrqqqqppppoooonnnmmmmlllkkkkjjjiiihhhhgggfffeeedddcccbbbaaa-..-
(PID.TID 0000.0001) //     99 -..-aaabbbcccdddeeefffggghhhhiiijjjkkkklllmmmmnnnnoooppppqqqqrrrrrsssstttttuuuuuuvvvvvvwwwwwwwxxxxxxxxxyyyyyyyyyyyyyyyyzzzzzzzzzzzzzzyyyyyyyyyyyyyyyyxxxxxxxxxwwwwwwwvvvvvvuuuuuutttttssssrrrrrqqqqppppooonnnnmmmmlllkkkkjjjiiihhhhgggfffeeedddcccbbbaaa-..-
(PID.TID 0000.0001) //     98 -..-aaabbbcccdddeeefffgggghhhiiijjjjkkklllmmmmnnnnooooppppqqqqrrrrssssstttttuuuuuvvvvvvwwwwwwwwxxxxxxxxxyyyyyyyyyyyyyyyyyyyyyyyyyyyyyyyyyyyyyyyyyyyyxxxxxxxxxwwwwwwwwvvvvvvuuuuutttttsssssrrrrqqqqppppoooonnnnmmmmlllkkkjjjjiiihhhggggfffeeedddcccbbbaaa-..-
(PID.TID 0000.0001) //     97 -..-aaabbbcccdddeeefffgggghhhiiijjjjkkkllllmmmnnnnooooppppqqqqrrrrssssstttttuuuuuuvvvvvvwwwwwwwxxxxxxxxxxyyyyyyyyyyyyyyyyyyyyyyyyyyyyyyyyyyyyyyyyyyxxxxxxxxxxwwwwwwwvvvvvvuuuuuutttttsssssrrrrqqqqppppoooonnnnmmmllllkkkjjjjiiihhhggggfffeeedddcccbbbaaa-..-
(PID.TID 0000.0001) //     96 -..-aaabbbcccdddeeeffffggghhhiiijjjjkkkllllmmmmnnnooooppppqqqqrrrrrssssstttttuuuuuvvvvvvvwwwwwwwxxxxxxxxxxxyyyyyyyyyyyyyyyyyyyyyyyyyyyyyyyyyyyyyyxxxxxxxxxxxwwwwwwwvvvvvvvuuuuutttttsssssrrrrrqqqqppppoooonnnmmmmllllkkkjjjjiiihhhgggffffeeedddcccbbbaaa-..-
(PID.TID 0000.0001) //     95 -..-aaabbbcccdddeeeffffggghhhiiiijjjkkkklllmmmmnnnnooopppppqqqqrrrrssssstttttuuuuuuvvvvvvvwwwwwwwxxxxxxxxxxxyyyyyyyyyyyyyyyyyyyyyyyyyyyyyyyyyyyyxxxxxxxxxxxwwwwwwwvvvvvvvuuuuuutttttsssssrrrrqqqqpppppooonnnnmmmmlllkkkkjjjiiiihhhgggffffeeedddcccbbbaaa-..-
(PID.TID 0000.0001) //     94 -..-aaabbbcccdddeeeefffggghhhiiiijjjkkkklllmmmmnnnnooooppppqqqqrrrrrssssstttttuuuuuuvvvvvvwwwwwwwwxxxxxxxxxxxxyyyyyyyyyyyyyyyyyyyyyyyyyyyyyyyyxxxxxxxxxxxxwwwwwwwwvvvvvvuuuuuutttttsssssrrrrrqqqqppppoooonnnnmmmmlllkkkkjjjiiiihhhgggfffeeeedddcccbbbaaa-..-
(PID.TID 0000.0001) //     93 -..-aaabbbcccdddeeeefffggghhhhiiijjjkkkkllllmmmnnnnooooppppqqqqqrrrrssssstttttuuuuuuvvvvvvvwwwwwwwwwxxxxxxxxxxxxyyyyyyyyyyyyyyyyyyyyyyyyyyyyxxxxxxxxxxxxwwwwwwwwwvvvvvvvuuuuuutttttsssssrrrrqqqqqppppoooonnnnmmmllllkkkkjjjiiihhhhgggfffeeeedddcccbbbaaa-..-
(PID.TID 0000.0001) //     92 -..-aaabbbcccdddeeeefffggghhhhiiijjjjkkkllllmmmmnnnoooopppppqqqqrrrrrssssstttttuuuuuuvvvvvvvwwwwwwwwwxxxxxxxxxxxxxxyyyyyyyyyyyyyyyyyyyyyyxxxxxxxxxxxxxxwwwwwwwwwvvvvvvvuuuuuutttttsssssrrrrrqqqqpppppoooonnnmmmmllllkkkjjjjiiihhhhgggfffeeeedddcccbbbaaa-..-
(PID.TID 0000.0001) //     91 -..-aaabbbcccddddeeefffggghhhhiiijjjjkkkllllmmmmnnnnooooppppqqqqrrrrrsssssttttttuuuuuuvvvvvvvwwwwwwwwwxxxxxxxxxxxxxxxxxyyyyyyyyyyyyyyxxxxxxxxxxxxxxxxxwwwwwwwwwvvvvvvvuuuuuuttttttsssssrrrrrqqqqppppoooonnnnmmmmllllkkkjjjjiiihhhhgggfffeeeddddcccbbbaaa-..-
(PID.TID 0000.0001) //     90 -..-aaabbbcccddddeeefffgggghhhiiiijjjkkkklllmmmmnnnnooooppppqqqqqrrrrrssssstttttuuuuuuuvvvvvvvwwwwwwwwwwxxxxxxxxxxxxxxxxxxxxxxxxxxxxxxxxxxxxxxxxxxxxwwwwwwwwwwvvvvvvvuuuuuuutttttsssssrrrrrqqqqqppppoooonnnnmmmmlllkkkkjjjiiiihhhggggfffeeeddddcccbbbaaa-..-
(PID.TID 0000.0001) //     89 -..-aaabbbcccddddeeefffgggghhhiiiijjjkkkkllllmmmnnnnoooooppppqqqqrrrrrsssssttttttuuuuuuuvvvvvvvwwwwwwwwwwwxxxxxxxxxxxxxxxxxxxxxxxxxxxxxxxxxxxxxxxxwwwwwwwwwwwvvvvvvvuuuuuuuttttttsssssrrrrrqqqqppppooooonnnnmmmllllkkkkjjjiiiihhhggggfffeeeddddcccbbbaaa-..-
(PID.TID 0000.0001) //     88 -..-aaabbbccccdddeeeffffggghhhiiiijjjjkkkllllmmmmnnnnooooppppqqqqqrrrrrsssssttttttuuuuuuuvvvvvvvvwwwwwwwwwwxxxxxxxxxxxxxxxxxxxxxxxxxxxxxxxxxxxxxxwwwwwwwwwwvvvvvvvvuuuuuuuttttttsssssrrrrrqqqqqppppoooonnnnmmmmllllkkkjjjjiiiihhhgggffffeeedddccccbbbaaa-..-
(PID.TID 0000.0001) //     87 -..-aaabbbccccdddeeeffffggghhhhiiijjjjkkkllllmmmmnnnnoooopppppqqqqrrrrrssssssttttttuuuuuuuvvvvvvvvwwwwwwwwwwwwxxxxxxxxxxxxxxxxxxxxxxxxxxxxxxxxwwwwwwwwwwwwvvvvvvvvuuuuuuuttttttssssssrrrrrqqqqpppppoooonnnnmmmmllllkkkjjjjiiihhhhgggffffeeedddccccbbbaaa-..-
(PID.TID 0000.0001) //     86 -..-aaabbbccccdddeeeffffggghhhhiiijjjjkkkkllllmmmmnnnnooooppppqqqqqrrrrrssssssttttttuuuuuuuvvvvvvvvwwwwwwwwwwwwwxxxxxxxxxxxxxxxxxxxxxxxxxxxxwwwwwwwwwwwwwvvvvvvvvuuuuuuuttttttssssssrrrrrqqqqqppppoooonnnnmmmmllllkkkkjjjjiiihhhhgggffffeeedddccccbbbaaa-..-
(PID.TID 0000.0001) //     85 -..-aaabbbccccdddeeeefffggghhhhiiiijjjkkkkllllmmmmnnnnoooopppppqqqqqrrrrrssssstttttttuuuuuuuvvvvvvvvvwwwwwwwwwwwwwwwxxxxxxxxxxxxxxxxxxxxwwwwwwwwwwwwwwwvvvvvvvvvuuuuuuutttttttsssssrrrrrqqqqqpppppoooonnnnmmmmllllkkkkjjjiiiihhhhgggfffeeeedddccccbbbaaa-..-
(PID.TID 0000.0001) //     84 -..-aaabbbccccdddeeeefffgggghhhiiiijjjjkkkllllmmmmnnnnoooooppppqqqqqrrrrrsssssstttttttuuuuuuuvvvvvvvvvvwwwwwwwwwwwwwwwwwwwxxxxxxxxwwwwwwwwwwwwwwwwwwwvvvvvvvvvvuuuuuuutttttttssssssrrrrrqqqqqppppooooonnnnmmmmllllkkkjjjjiiiihhhggggfffeeeedddccccbbbaaa-..-
(PID.TID 0000.0001) //     83 -..-aaabbbccccdddeeeefffgggghhhiiiijjjjkkkkllllmmmmnnnnoooopppppqqqqqrrrrrsssssstttttttuuuuuuuvvvvvvvvvvvwwwwwwwwwwwwwwwwwwwwwwwwwwwwwwwwwwwwwwwwwwvvvvvvvvvvvuuuuuuutttttttssssssrrrrrqqqqqpppppoooonnnnmmmmllllkkkkjjjjiiiihhhggggfffeeeedddccccbbbaaa-..-
(PID.TID 0000.0001) //     82 -..-aaabbbbcccdddeeeefffgggghhhhiiijjjjkkkkllllmmmmnnnnooooopppppqqqqqrrrrrsssssstttttttuuuuuuuuvvvvvvvvvvvwwwwwwwwwwwwwwwwwwwwwwwwwwwwwwwwwwwwwwvvvvvvvvvvvuuuuuuuutttttttssssssrrrrrqqqqqpppppooooonnnnmmmmllllkkkkjjjjiiihhhhggggfffeeeedddcccbbbbaaa-..-
(PID.TID 0000.0001) //     81 -..-aaabbbbcccddddeeeffffggghhhhiiiijjjkkkkllllmmmmmnnnnoooopppppqqqqqrrrrrrsssssstttttttuuuuuuuuvvvvvvvvvvvvwwwwwwwwwwwwwwwwwwwwwwwwwwwwwwwwwwvvvvvvvvvvvvuuuuuuuutttttttssssssrrrrrrqqqqqpppppoooonnnnmmmmmllllkkkkjjjiiiihhhhgggffffeeeddddcccbbbbaaa-..-
(PID.TID 0000.0001) //     80 -..-aaabbbbcccddddeeeffffggghhhhiiiijjjjkkkkllllmmmmnnnnooooopppppqqqqqrrrrrrsssssstttttttuuuuuuuuuvvvvvvvvvvvvvvwwwwwwwwwwwwwwwwwwwwwwwwwwvvvvvvvvvvvvvvuuuuuuuuutttttttssssssrrrrrrqqqqqpppppooooonnnnmmmmllllkkkkjjjjiiiihhhhgggffffeeeddddcccbbbbaaa-..-
(PID.TID 0000.0001) //     79 -..-aaabbbbcccddddeeeffffgggghhhiiiijjjjkkkkllllmmmmnnnnnoooooppppqqqqqqrrrrrrsssssstttttttuuuuuuuuuuvvvvvvvvvvvvvvvvwwwwwwwwwwwwwwwwwwvvvvvvvvvvvvvvvvuuuuuuuuuutttttttssssssrrrrrrqqqqqqppppooooonnnnnmmmmllllkkkkjjjjiiiihhhggggffffeeeddddcccbbbbaaa-..-
(PID.TID 0000.0001) //     78 -..-aaabbbbcccddddeeeefffgggghhhhiiiijjjkkkklllllmmmmnnnnooooopppppqqqqqqrrrrrsssssssttttttttuuuuuuuuuuvvvvvvvvvvvvvvvvvvvvvvvvvvvvvvvvvvvvvvvvvvvvvvuuuuuuuuuuttttttttsssssssrrrrrqqqqqqpppppooooonnnnmmmmlllllkkkkjjjiiiihhhhggggfffeeeeddddcccbbbbaaa-..-
(PID.TID 0000.0001) //     77 -..-aaabbbbcccddddeeeefffgggghhhhiiiijjjjkkkkllllmmmmnnnnnooooopppppqqqqqrrrrrrsssssssttttttttuuuuuuuuuuuvvvvvvvvvvvvvvvvvvvvvvvvvvvvvvvvvvvvvvvvvvuuuuuuuuuuuttttttttsssssssrrrrrrqqqqqpppppooooonnnnnmmmmllllkkkkjjjjiiiihhhhggggfffeeeeddddcccbbbbaaa-..-
(PID.TID 0000.0001) //     76 -..-aaabbbbccccdddeeeeffffggghhhhiiiijjjjkkkklllllmmmmnnnnnooooopppppqqqqqrrrrrrrsssssssttttttttuuuuuuuuuuuuvvvvvvvvvvvvvvvvvvvvvvvvvvvvvvvvvvvvuuuuuuuuuuuuttttttttsssssssrrrrrrrqqqqqpppppooooonnnnnmmmmlllllkkkkjjjjiiiihhhhgggffffeeeedddccccbbbbaaa-..-
(PID.TID 0000.0001) //     75 -..-aaabbbbccccdddeeeeffffgggghhhhiiiijjjjkkkkllllmmmmmnnnnoooooppppppqqqqqrrrrrrrssssssstttttttttuuuuuuuuuuuuuuvvvvvvvvvvvvvvvvvvvvvvvvvvvvuuuuuuuuuuuuuutttttttttsssssssrrrrrrrqqqqqppppppooooonnnnmmmmmllllkkkkjjjjiiiihhhhggggffffeeeedddccccbbbbaaa-..-
(PID.TID 0000.0001) //     74 -..-aaaabbbccccddddeeeffffgggghhhhiiiijjjjkkkklllllmmmmnnnnnooooopppppqqqqqqrrrrrrrsssssssttttttttttuuuuuuuuuuuuuuuuvvvvvvvvvvvvvvvvvvvvuuuuuuuuuuuuuuuuttttttttttsssssssrrrrrrrqqqqqqpppppooooonnnnnmmmmlllllkkkkjjjjiiiihhhhggggffffeeeddddccccbbbaaaa-..-
(PID.TID 0000.0001) //     73 -..-aaaabbbccccddddeeeffffgggghhhhiiiijjjjkkkkkllllmmmmmnnnnnooooopppppqqqqqqrrrrrrrssssssssttttttttttuuuuuuuuuuuuuuuuuuuuuuuuuuuuuuuuuuuuuuuuuuuuuuuuttttttttttssssssssrrrrrrrqqqqqqpppppooooonnnnnmmmmmllllkkkkkjjjjiiiihhhhggggffffeeeddddccccbbbaaaa-..-
(PID.TID 0000.0001) //     72 -..-aaaabbbccccddddeeeeffffgggghhhhiiiijjjjkkkklllllmmmmnnnnnoooooopppppqqqqqqrrrrrrrssssssssstttttttttttuuuuuuuuuuuuuuuuuuuuuuuuuuuuuuuuuuuuuuuuuutttttttttttsssssssssrrrrrrrqqqqqqpppppoooooonnnnnmmmmlllllkkkkjjjjiiiihhhhggggffffeeeeddddccccbbbaaaa-..-
(PID.TID 0000.0001) //     71 -..-aaaabbbccccddddeeeeffffgggghhhhiiiijjjjkkkkkllllmmmmmnnnnnoooooppppppqqqqqqqrrrrrrrsssssssssttttttttttttuuuuuuuuuuuuuuuuuuuuuuuuuuuuuuuuuuuuttttttttttttsssssssssrrrrrrrqqqqqqqppppppooooonnnnnmmmmmllllkkkkkjjjjiiiihhhhggggffffeeeeddddccccbbbaaaa-..-
(PID.TID 0000.0001) //     70 -..-aaaabbbbcccddddeeeeffffgggghhhhiiiijjjjjkkkklllllmmmmmnnnnnoooooppppppqqqqqqqrrrrrrrssssssssssttttttttttttttuuuuuuuuuuuuuuuuuuuuuuuuuuuuttttttttttttttssssssssssrrrrrrrqqqqqqqppppppooooonnnnnmmmmmlllllkkkkjjjjjiiiihhhhggggffffeeeeddddcccbbbbaaaa-..-
(PID.TID 0000.0001) //     69 -..-aaaabbbbccccdddeeeeffffgggghhhhhiiiijjjjkkkkklllllmmmmnnnnnnoooooppppppqqqqqqqrrrrrrrrssssssssssttttttttttttttttttuuuuuuuuuuuuuuuuttttttttttttttttttssssssssssrrrrrrrrqqqqqqqppppppooooonnnnnnmmmmlllllkkkkkjjjjiiiihhhhhggggffffeeeedddccccbbbbaaaa-..-
(PID.TID 0000.0001) //     68 -..-aaaabbbbccccddddeeeeffffgggghhhhiiiijjjjjkkkklllllmmmmmnnnnnnooooopppppppqqqqqqqrrrrrrrrsssssssssssttttttttttttttttttttttttttttttttttttttttttttttsssssssssssrrrrrrrrqqqqqqqpppppppooooonnnnnnmmmmmlllllkkkkjjjjjiiiihhhhggggffffeeeeddddccccbbbbaaaa-..-
(PID.TID 0000.0001) //     67 -..-aaaabbbbccccddddeeeeffffgggghhhhiiiiijjjjkkkkklllllmmmmmnnnnnoooooopppppppqqqqqqqrrrrrrrrrssssssssssssttttttttttttttttttttttttttttttttttttttttssssssssssssrrrrrrrrrqqqqqqqpppppppoooooonnnnnmmmmmlllllkkkkkjjjjiiiiihhhhggggffffeeeeddddccccbbbbaaaa-..-
(PID.TID 0000.0001) //     66 -..-aaaabbbbccccddddeeeeffffggggghhhhiiiijjjjjkkkkklllllmmmmmnnnnnoooooopppppppqqqqqqqqrrrrrrrrrssssssssssssssttttttttttttttttttttttttttttttttssssssssssssssrrrrrrrrrqqqqqqqqpppppppoooooonnnnnmmmmmlllllkkkkkjjjjjiiiihhhhgggggffffeeeeddddccccbbbbaaaa-..-
(PID.TID 0000.0001) //     65 -..-aaaabbbbccccddddeeeefffffgggghhhhiiiiijjjjkkkkklllllmmmmmmnnnnnoooooooppppppqqqqqqqqrrrrrrrrrrsssssssssssssssssttttttttttttttttttttttsssssssssssssssssrrrrrrrrrrqqqqqqqqppppppooooooonnnnnmmmmmmlllllkkkkkjjjjiiiiihhhhggggfffffeeeeddddccccbbbbaaaa-..-
(PID.TID 0000.0001) //     64 -..-aaaabbbbccccddddeeeeeffffgggghhhhhiiiijjjjjkkkkklllllmmmmmmnnnnnooooooopppppppqqqqqqqqrrrrrrrrrrrssssssssssssssssssssssssssssssssssssssssssssssssssrrrrrrrrrrrqqqqqqqqpppppppooooooonnnnnmmmmmmlllllkkkkkjjjjjiiiihhhhhggggffffeeeeeddddccccbbbbaaaa-..-
(PID.TID 0000.0001) //     63 -..-aaaabbbbccccdddddeeeeffffggggghhhhiiiiijjjjjkkkkklllllmmmmmmnnnnnnooooooppppppppqqqqqqqqrrrrrrrrrrrrssssssssssssssssssssssssssssssssssssssssssssrrrrrrrrrrrrqqqqqqqqppppppppoooooonnnnnnmmmmmmlllllkkkkkjjjjjiiiiihhhhgggggffffeeeedddddccccbbbbaaaa-..-
(PID.TID 0000.0001) //     62 -..-aaaabbbbcccccddddeeeefffffgggghhhhhiiiijjjjjkkkkkllllllmmmmmmnnnnnnooooooopppppppqqqqqqqqqqrrrrrrrrrrrrrssssssssssssssssssssssssssssssssssssrrrrrrrrrrrrrqqqqqqqqqqpppppppooooooonnnnnnmmmmmmllllllkkkkkjjjjjiiiihhhhhggggfffffeeeeddddcccccbbbbaaaa-..-
(PID.TID 0000.0001) //     61 -..-aaaabbbbbccccddddeeeeeffffggggghhhhiiiiijjjjjkkkkkllllllmmmmmmnnnnnnoooooooppppppppqqqqqqqqqqrrrrrrrrrrrrrrrrrssssssssssssssssssssssssrrrrrrrrrrrrrrrrrqqqqqqqqqqppppppppooooooonnnnnnmmmmmmllllllkkkkkjjjjjiiiiihhhhgggggffffeeeeeddddccccbbbbbaaaa-..-
(PID.TID 0000.0001) //     60 -..-aaaabbbbbccccddddeeeeeffffggggghhhhhiiiiijjjjjkkkkkllllllmmmmmmnnnnnnooooooooppppppppqqqqqqqqqqqrrrrrrrrrrrrrrrrrrrrrrrrrrrrrrrrrrrrrrrrrrrrrrrrrrrrqqqqqqqqqqqppppppppoooooooonnnnnnmmmmmmllllllkkkkkjjjjjiiiiihhhhhgggggffffeeeeeddddccccbbbbbaaaa-..-
(PID.TID 0000.0001) //     59 -..-aaaaabbbbccccdddddeeeefffffggggghhhhiiiiijjjjjkkkkkkllllllmmmmmmnnnnnnnooooooopppppppppqqqqqqqqqqqqqrrrrrrrrrrrrrrrrrrrrrrrrrrrrrrrrrrrrrrrrrrrrqqqqqqqqqqqqqpppppppppooooooonnnnnnnmmmmmmllllllkkkkkkjjjjjiiiiihhhhgggggfffffeeeedddddccccbbbbaaaaa-..-
(PID.TID 0000.0001) //     58 -..-aaaaabbbbcccccddddeeeeeffffggggghhhhhiiiiijjjjjkkkkkkllllllmmmmmmnnnnnnnooooooooppppppppppqqqqqqqqqqqqqqrrrrrrrrrrrrrrrrrrrrrrrrrrrrrrrrrrrrqqqqqqqqqqqqqqppppppppppoooooooonnnnnnnmmmmmmllllllkkkkkkjjjjjiiiiihhhhhgggggffffeeeeeddddcccccbbbbaaaaa-..-
(PID.TID 0000.0001) //     57 -..-aaaaabbbbcccccddddeeeeefffffggggghhhhhiiiiijjjjjkkkkkkllllllmmmmmmnnnnnnnnoooooooopppppppppppqqqqqqqqqqqqqqqqqrrrrrrrrrrrrrrrrrrrrrrrrqqqqqqqqqqqqqqqqqpppppppppppoooooooonnnnnnnnmmmmmmllllllkkkkkkjjjjjiiiiihhhhhgggggfffffeeeeeddddcccccbbbbaaaaa-..-
(PID.TID 0000.0001) //     56 -..-aaaaabbbbcccccdddddeeeefffffggggghhhhhiiiiijjjjjjkkkkkkllllllmmmmmmmnnnnnnnoooooooooppppppppppppqqqqqqqqqqqqqqqqqqqqqqqqqqqqqqqqqqqqqqqqqqqqqqqqqqqqppppppppppppooooooooonnnnnnnmmmmmmmllllllkkkkkkjjjjjjiiiiihhhhhgggggfffffeeeedddddcccccbbbbaaaaa-..-
(PID.TID 0000.0001) //     55 -..-aaaaabbbbbccccdddddeeeeefffffggggghhhhhiiiiijjjjjjkkkkkkllllllmmmmmmmnnnnnnnnoooooooooopppppppppppppqqqqqqqqqqqqqqqqqqqqqqqqqqqqqqqqqqqqqqqqqqqqpppppppppppppoooooooooonnnnnnnnmmmmmmmllllllkkkkkkjjjjjjiiiiihhhhhgggggfffffeeeeedddddccccbbbbbaaaaa-..-
(PID.TID 0000.0001) //     54 -..-aaaaabbbbbccccdddddeeeeefffffggggghhhhhhiiiiijjjjjjkkkkkklllllllmmmmmmmnnnnnnnnoooooooooopppppppppppppppqqqqqqqqqqqqqqqqqqqqqqqqqqqqqqqqqqqqpppppppppppppppoooooooooonnnnnnnnmmmmmmmlllllllkkkkkkjjjjjjiiiiihhhhhhgggggfffffeeeeedddddccccbbbbbaaaaa-..-
(PID.TID 0000.0001) //     53 -..-aaaaabbbbbcccccdddddeeeeefffffggggghhhhhiiiiiijjjjjjkkkkkklllllllmmmmmmmmnnnnnnnnooooooooooopppppppppppppppppppqqqqqqqqqqqqqqqqqqqqqqpppppppppppppppppppooooooooooonnnnnnnnmmmmmmmmlllllllkkkkkkjjjjjjiiiiiihhhhhgggggfffffeeeeedddddcccccbbbbbaaaaa-..-
(PID.TID 0000.0001) //     52 -..-aaaaabbbbbcccccdddddeeeeefffffgggggghhhhhiiiiiijjjjjjkkkkkkllllllllmmmmmmmnnnnnnnnnnooooooooooooppppppppppppppppppppppppppppppppppppppppppppppppppppoooooooooooonnnnnnnnnnmmmmmmmllllllllkkkkkkjjjjjjiiiiiihhhhhggggggfffffeeeeedddddcccccbbbbbaaaaa-..-
(PID.TID 0000.0001) //     51 -..-aaaaabbbbbcccccdddddeeeeeefffffggggghhhhhhiiiiiijjjjjjkkkkkkklllllllmmmmmmmmnnnnnnnnnnooooooooooooooppppppppppppppppppppppppppppppppppppppppppppoooooooooooooonnnnnnnnnnmmmmmmmmlllllllkkkkkkkjjjjjjiiiiiihhhhhhgggggfffffeeeeeedddddcccccbbbbbaaaaa-..-
(PID.TID 0000.0001) //     50 -..--aaaaabbbbbcccccdddddeeeeefffffgggggghhhhhhiiiiiijjjjjjkkkkkkkllllllllmmmmmmmmmnnnnnnnnnnoooooooooooooooooppppppppppppppppppppppppppppppppooooooooooooooooonnnnnnnnnnmmmmmmmmmllllllllkkkkkkkjjjjjjiiiiiihhhhhhggggggfffffeeeeedddddcccccbbbbbaaaaa--..-
(PID.TID 0000.0001) //     49 -..--aaaaabbbbbcccccdddddeeeeeefffffgggggghhhhhhiiiiiijjjjjjkkkkkkkkllllllllmmmmmmmmmnnnnnnnnnnnnooooooooooooooooooooooppppppppppppppoooooooooooooooooooooonnnnnnnnnnnnmmmmmmmmmllllllllkkkkkkkkjjjjjjiiiiiihhhhhhggggggfffffeeeeeedddddcccccbbbbbaaaaa--..-
(PID.TID 0000.0001) //     48 -..--aaaaabbbbbcccccddddddeeeeeffffffgggggghhhhhhiiiiiijjjjjjjkkkkkkklllllllllmmmmmmmmmmnnnnnnnnnnnnnoooooooooooooooooooooooooooooooooooooooooooooooooonnnnnnnnnnnnnmmmmmmmmmmlllllllllkkkkkkkjjjjjjjiiiiiihhhhhhggggggffffffeeeeeddddddcccccbbbbbaaaaa--..-
(PID.TID 0000.0001) //     47 -..--aaaaabbbbbccccccdddddeeeeeefffffgggggghhhhhhhiiiiiijjjjjjjkkkkkkkklllllllllmmmmmmmmmmnnnnnnnnnnnnnnnnoooooooooooooooooooooooooooooooooooooooonnnnnnnnnnnnnnnnmmmmmmmmmmlllllllllkkkkkkkkjjjjjjjiiiiiihhhhhhhggggggfffffeeeeeedddddccccccbbbbbaaaaa--..-
(PID.TID 0000.0001) //     46 -..--aaaaabbbbbbcccccddddddeeeeeffffffgggggghhhhhhhiiiiiijjjjjjjjkkkkkkkklllllllllmmmmmmmmmmmmnnnnnnnnnnnnnnnnnnnoooooooooooooooooooooooooonnnnnnnnnnnnnnnnnnnmmmmmmmmmmmmlllllllllkkkkkkkkjjjjjjjjiiiiiihhhhhhhggggggffffffeeeeeddddddcccccbbbbbbaaaaa--..-
(PID.TID 0000.0001) //     45 -..--aaaaabbbbbbcccccddddddeeeeeeffffffgggggghhhhhhhiiiiiiijjjjjjjkkkkkkkkkllllllllllmmmmmmmmmmmmmnnnnnnnnnnnnnnnnnnnnnnnnnnnnnnnnnnnnnnnnnnnnnnnnnnnnnnnnmmmmmmmmmmmmmllllllllllkkkkkkkkkjjjjjjjiiiiiiihhhhhhhggggggffffffeeeeeeddddddcccccbbbbbbaaaaa--..-
(PID.TID 0000.0001) //     44 -..--aaaaabbbbbbccccccddddddeeeeeeffffffgggggghhhhhhhiiiiiiijjjjjjjjkkkkkkkkklllllllllllmmmmmmmmmmmmmmnnnnnnnnnnnnnnnnnnnnnnnnnnnnnnnnnnnnnnnnnnnnnnnnmmmmmmmmmmmmmmlllllllllllkkkkkkkkkjjjjjjjjiiiiiiihhhhhhhggggggffffffeeeeeeddddddccccccbbbbbbaaaaa--..-
(PID.TID 0000.0001) //     43 -..--aaaaaabbbbbccccccddddddeeeeeefffffffgggggghhhhhhhiiiiiiiijjjjjjjjkkkkkkkkkllllllllllllmmmmmmmmmmmmmmmmmnnnnnnnnnnnnnnnnnnnnnnnnnnnnnnnnnnnnmmmmmmmmmmmmmmmmmllllllllllllkkkkkkkkkjjjjjjjjiiiiiiiihhhhhhhggggggfffffffeeeeeeddddddccccccbbbbbaaaaaa--..-
(PID.TID 0000.0001) //     42 -..--aaaaaabbbbbbccccccddddddeeeeeefffffffgggggghhhhhhhhiiiiiiijjjjjjjjjkkkkkkkkkklllllllllllllmmmmmmmmmmmmmmmmmmmmmmmmmnnnnnnnnnnnnmmmmmmmmmmmmmmmmmmmmmmmmmlllllllllllllkkkkkkkkkkjjjjjjjjjiiiiiiihhhhhhhhggggggfffffffeeeeeeddddddccccccbbbbbbaaaaaa--..-
(PID.TID 0000.0001) //     41 -..--aaaaaabbbbbbccccccddddddeeeeeeefffffffggggggghhhhhhhiiiiiiiijjjjjjjjjkkkkkkkkkkkllllllllllllllmmmmmmmmmmmmmmmmmmmmmmmmmmmmmmmmmmmmmmmmmmmmmmmmmmmmmmllllllllllllllkkkkkkkkkkkjjjjjjjjjiiiiiiiihhhhhhhgggggggfffffffeeeeeeeddddddccccccbbbbbbaaaaaa--..-
(PID.TID 0000.0001) //     40 -..--aaaaaabbbbbbcccccccddddddeeeeeeefffffffggggggghhhhhhhhiiiiiiiijjjjjjjjjjkkkkkkkkkkklllllllllllllllllmmmmmmmmmmmmmmmmmmmmmmmmmmmmmmmmmmmmmmmmmmlllllllllllllllllkkkkkkkkkkkjjjjjjjjjjiiiiiiiihhhhhhhhgggggggfffffffeeeeeeeddddddcccccccbbbbbbaaaaaa--..-
(PID.TID 0000.0001) //     39 -..--aaaaaabbbbbbbccccccdddddddeeeeeeefffffffggggggghhhhhhhhiiiiiiiiijjjjjjjjjjkkkkkkkkkkkkkllllllllllllllllllllllmmmmmmmmmmmmmmmmmmmmmmmmllllllllllllllllllllllkkkkkkkkkkkkkjjjjjjjjjjiiiiiiiiihhhhhhhhgggggggfffffffeeeeeeedddddddccccccbbbbbbbaaaaaa--..-
(PID.TID 0000.0001) //     38 -..--aaaaaaabbbbbbcccccccddddddeeeeeeeffffffffgggggggghhhhhhhhiiiiiiiiijjjjjjjjjjjkkkkkkkkkkkkkkkllllllllllllllllllllllllllllllllllllllllllllllllllllllllllkkkkkkkkkkkkkkkjjjjjjjjjjjiiiiiiiiihhhhhhhhggggggggffffffffeeeeeeeddddddcccccccbbbbbbaaaaaaa--..-
(PID.TID 0000.0001) //     37 -..--aaaaaaabbbbbbbccccccdddddddeeeeeeeffffffffgggggggghhhhhhhhhiiiiiiiiiijjjjjjjjjjjjkkkkkkkkkkkkkkkkllllllllllllllllllllllllllllllllllllllllllllllllkkkkkkkkkkkkkkkkjjjjjjjjjjjjiiiiiiiiiihhhhhhhhhggggggggffffffffeeeeeeedddddddccccccbbbbbbbaaaaaaa--..-
(PID.TID 0000.0001) //     36 -..--aaaaaaabbbbbbbcccccccdddddddeeeeeeeefffffffggggggggghhhhhhhhhiiiiiiiiiiijjjjjjjjjjjjjkkkkkkkkkkkkkkkkkkkkllllllllllllllllllllllllllllllllkkkkkkkkkkkkkkkkkkkkjjjjjjjjjjjjjiiiiiiiiiiihhhhhhhhhgggggggggfffffffeeeeeeeedddddddcccccccbbbbbbbaaaaaaa--..-
(PID.TID 0000.0001) //     35 -..---aaaaaabbbbbbbccccccccdddddddeeeeeeeeffffffffggggggggghhhhhhhhhiiiiiiiiiiiijjjjjjjjjjjjjjkkkkkkkkkkkkkkkkkkkkkkkkkkkkkkkkkkkkkkkkkkkkkkkkkkkkkkkkkkkkkkkkjjjjjjjjjjjjjjiiiiiiiiiiiihhhhhhhhhgggggggggffffffffeeeeeeeedddddddccccccccbbbbbbbaaaaaa---..-
(PID.TID 0000.0001) //     34 -..---aaaaaaabbbbbbbcccccccddddddddeeeeeeeeffffffffgggggggggghhhhhhhhhhiiiiiiiiiiiijjjjjjjjjjjjjjjjjkkkkkkkkkkkkkkkkkkkkkkkkkkkkkkkkkkkkkkkkkkkkkkkkkkkkjjjjjjjjjjjjjjjjjiiiiiiiiiiiihhhhhhhhhhggggggggggffffffffeeeeeeeeddddddddcccccccbbbbbbbaaaaaaa---..-
(PID.TID 0000.0001) //     33 -..---aaaaaaabbbbbbbccccccccddddddddeeeeeeeefffffffffgggggggggghhhhhhhhhhhiiiiiiiiiiiiijjjjjjjjjjjjjjjjjjjjkkkkkkkkkkkkkkkkkkkkkkkkkkkkkkkkkkkkkkjjjjjjjjjjjjjjjjjjjjiiiiiiiiiiiiihhhhhhhhhhhggggggggggfffffffffeeeeeeeeddddddddccccccccbbbbbbbaaaaaaa---..-
(PID.TID 0000.0001) //     32 -..---aaaaaaabbbbbbbbccccccccddddddddeeeeeeeeefffffffffgggggggggghhhhhhhhhhhhiiiiiiiiiiiiiiijjjjjjjjjjjjjjjjjjjjjjjjjjjjjjjjjjjjjjjjjjjjjjjjjjjjjjjjjjjjjjjjjjjjiiiiiiiiiiiiiiihhhhhhhhhhhhggggggggggfffffffffeeeeeeeeeddddddddccccccccbbbbbbbbaaaaaaa---..-
(PID.TID 0000.0001) //     31 -..---aaaaaaaabbbbbbbbccccccccddddddddeeeeeeeeeffffffffffggggggggggghhhhhhhhhhhhiiiiiiiiiiiiiiiiijjjjjjjjjjjjjjjjjjjjjjjjjjjjjjjjjjjjjjjjjjjjjjjjjjjjjjjjjjiiiiiiiiiiiiiiiiihhhhhhhhhhhhgggggggggggffffffffffeeeeeeeeeddddddddccccccccbbbbbbbbaaaaaaaa---..-
(PID.TID 0000.0001) //     30 -..---aaaaaaaabbbbbbbbcccccccccddddddddeeeeeeeeeeffffffffffggggggggggghhhhhhhhhhhhhhiiiiiiiiiiiiiiiiiiiiijjjjjjjjjjjjjjjjjjjjjjjjjjjjjjjjjjjjjjjjjjiiiiiiiiiiiiiiiiiiiiihhhhhhhhhhhhhhgggggggggggffffffffffeeeeeeeeeeddddddddcccccccccbbbbbbbbaaaaaaaa---..-
(PID.TID 0000.0001) //     29 -..---aaaaaaaaabbbbbbbbcccccccccdddddddddeeeeeeeeeeffffffffffggggggggggggghhhhhhhhhhhhhhhiiiiiiiiiiiiiiiiiiiiiiiiiiiiiiijjjjjjjjjjjjiiiiiiiiiiiiiiiiiiiiiiiiiiiiiiihhhhhhhhhhhhhhhgggggggggggggffffffffffeeeeeeeeeedddddddddcccccccccbbbbbbbbaaaaaaaaa---..-
(PID.TID 0000.0001) //     28 -..---aaaaaaaaabbbbbbbbbcccccccccdddddddddeeeeeeeeeeefffffffffffggggggggggggghhhhhhhhhhhhhhhhhhiiiiiiiiiiiiiiiiiiiiiiiiiiiiiiiiiiiiiiiiiiiiiiiiiiiiiiiiiiiiiihhhhhhhhhhhhhhhhhhgggggggggggggfffffffffffeeeeeeeeeeedddddddddcccccccccbbbbbbbbbaaaaaaaaa---..-
(PID.TID 0000.0001) //     27 -..----aaaaaaaabbbbbbbbbbcccccccccddddddddddeeeeeeeeeeeffffffffffffgggggggggggggghhhhhhhhhhhhhhhhhhhhhhiiiiiiiiiiiiiiiiiiiiiiiiiiiiiiiiiiiiiiiiiiiiiihhhhhhhhhhhhhhhhhhhhhhggggggggggggggffffffffffffeeeeeeeeeeeddddddddddcccccccccbbbbbbbbbbaaaaaaaa----..-
(PID.TID 0000.0001) //     26 -..----aaaaaaaaabbbbbbbbbccccccccccdddddddddddeeeeeeeeeeefffffffffffffgggggggggggggggghhhhhhhhhhhhhhhhhhhhhhhhhhhhhhiiiiiiiiiiiiiiiiiiiihhhhhhhhhhhhhhhhhhhhhhhhhhhhhhggggggggggggggggfffffffffffffeeeeeeeeeeedddddddddddccccccccccbbbbbbbbbaaaaaaaaa----..-
(PID.TID 0000.0001) //     25 -..----aaaaaaaaaabbbbbbbbbcccccccccccdddddddddddeeeeeeeeeeeeffffffffffffffgggggggggggggggggghhhhhhhhhhhhhhhhhhhhhhhhhhhhhhhhhhhhhhhhhhhhhhhhhhhhhhhhhhhhhhhhhhhhggggggggggggggggggffffffffffffffeeeeeeeeeeeedddddddddddcccccccccccbbbbbbbbbaaaaaaaaaa----..-
(PID.TID 0000.0001) //     24 -..----aaaaaaaaaabbbbbbbbbbcccccccccccddddddddddddeeeeeeeeeeeeefffffffffffffffgggggggggggggggggggggghhhhhhhhhhhhhhhhhhhhhhhhhhhhhhhhhhhhhhhhhhhhhhhhhhhhggggggggggggggggggggggfffffffffffffffeeeeeeeeeeeeeddddddddddddcccccccccccbbbbbbbbbbaaaaaaaaaa----..-
(PID.TID 0000.0001) //     23 -..----aaaaaaaaaaabbbbbbbbbbbcccccccccccddddddddddddeeeeeeeeeeeeeefffffffffffffffffggggggggggggggggggggggggggggggghhhhhhhhhhhhhhhhhhhhhhhhgggggggggggggggggggggggggggggggfffffffffffffffffeeeeeeeeeeeeeeddddddddddddcccccccccccbbbbbbbbbbbaaaaaaaaaaa----..-
(PID.TID 0000.0001) //     22 -..-----aaaaaaaaaaabbbbbbbbbbbccccccccccccdddddddddddddeeeeeeeeeeeeeeeffffffffffffffffffffggggggggggggggggggggggggggggggggggggggggggggggggggggggggggggggggggggggggffffffffffffffffffffeeeeeeeeeeeeeeedddddddddddddccccccccccccbbbbbbbbbbbaaaaaaaaaaa-----..-
(PID.TID 0000.0001) //     21 -..-----aaaaaaaaaaabbbbbbbbbbbbcccccccccccccddddddddddddddeeeeeeeeeeeeeeeeffffffffffffffffffffffffggggggggggggggggggggggggggggggggggggggggggggggggggggggggffffffffffffffffffffffffeeeeeeeeeeeeeeeeddddddddddddddcccccccccccccbbbbbbbbbbbbaaaaaaaaaaa-----..-
(PID.TID 0000.0001) //     20 -..-----aaaaaaaaaaaabbbbbbbbbbbbbcccccccccccccdddddddddddddddeeeeeeeeeeeeeeeeeeefffffffffffffffffffffffffffffffffggggggggggggggggggggggggggfffffffffffffffffffffffffffffffffeeeeeeeeeeeeeeeeeeedddddddddddddddcccccccccccccbbbbbbbbbbbbbaaaaaaaaaaaa-----..-
(PID.TID 0000.0001) //     19 -..-----aaaaaaaaaaaaabbbbbbbbbbbbbcccccccccccccccddddddddddddddddeeeeeeeeeeeeeeeeeeeeeeffffffffffffffffffffffffffffffffffffffffffffffffffffffffffffffffffffffffffffffeeeeeeeeeeeeeeeeeeeeeeddddddddddddddddcccccccccccccccbbbbbbbbbbbbbaaaaaaaaaaaaa-----..-
(PID.TID 0000.0001) //     18 -..------aaaaaaaaaaaaabbbbbbbbbbbbbbccccccccccccccccddddddddddddddddddeeeeeeeeeeeeeeeeeeeeeeeeeeffffffffffffffffffffffffffffffffffffffffffffffffffffffffffffeeeeeeeeeeeeeeeeeeeeeeeeeeddddddddddddddddddccccccccccccccccbbbbbbbbbbbbbbaaaaaaaaaaaaa------..-
(PID.TID 0000.0001) //     17 -..------aaaaaaaaaaaaaaabbbbbbbbbbbbbbbccccccccccccccccdddddddddddddddddddddeeeeeeeeeeeeeeeeeeeeeeeeeeeeeeeeeeeffffffffffffffffffffffffffffffeeeeeeeeeeeeeeeeeeeeeeeeeeeeeeeeeeedddddddddddddddddddddccccccccccccccccbbbbbbbbbbbbbbbaaaaaaaaaaaaaaa------..-
(PID.TID 0000.0001) //     16 -..-------aaaaaaaaaaaaaaabbbbbbbbbbbbbbbbcccccccccccccccccccdddddddddddddddddddddddeeeeeeeeeeeeeeeeeeeeeeeeeeeeeeeeeeeeeeeeeeeeeeeeeeeeeeeeeeeeeeeeeeeeeeeeeeeeeeeeeeeeeedddddddddddddddddddddddcccccccccccccccccccbbbbbbbbbbbbbbbbaaaaaaaaaaaaaaa-------..-
(PID.TID 0000.0001) //     15 -..-------aaaaaaaaaaaaaaaaabbbbbbbbbbbbbbbbbccccccccccccccccccccdddddddddddddddddddddddddddddeeeeeeeeeeeeeeeeeeeeeeeeeeeeeeeeeeeeeeeeeeeeeeeeeeeeeeeeeeeeeeeeeedddddddddddddddddddddddddddddccccccccccccccccccccbbbbbbbbbbbbbbbbbaaaaaaaaaaaaaaaaa-------..-
(PID.TID 0000.0001) //     14 -..--------aaaaaaaaaaaaaaaaabbbbbbbbbbbbbbbbbbbbcccccccccccccccccccccccddddddddddddddddddddddddddddddddddddddddeeeeeeeeeeeeeeeeeeeeeeeeeeeeeeddddddddddddddddddddddddddddddddddddddddcccccccccccccccccccccccbbbbbbbbbbbbbbbbbbbbaaaaaaaaaaaaaaaaa--------..-
(PID.TID 0000.0001) //     13 -..--------aaaaaaaaaaaaaaaaaaaabbbbbbbbbbbbbbbbbbbbbccccccccccccccccccccccccccddddddddddddddddddddddddddddddddddddddddddddddddddddddddddddddddddddddddddddddddddddddddddddddddccccccccccccccccccccccccccbbbbbbbbbbbbbbbbbbbbbaaaaaaaaaaaaaaaaaaaa--------..-
(PID.TID 0000.0001) //     12 -..---------aaaaaaaaaaaaaaaaaaaaabbbbbbbbbbbbbbbbbbbbbbbbcccccccccccccccccccccccccccccccccddddddddddddddddddddddddddddddddddddddddddddddddddddddddddddddddddddddddcccccccccccccccccccccccccccccccccbbbbbbbbbbbbbbbbbbbbbbbbaaaaaaaaaaaaaaaaaaaaa---------..-
(PID.TID 0000.0001) //     11 -..----------aaaaaaaaaaaaaaaaaaaaaaabbbbbbbbbbbbbbbbbbbbbbbbbbbcccccccccccccccccccccccccccccccccccccccccccccccddddddddddddddddddddddddddddddddcccccccccccccccccccccccccccccccccccccccccccccccbbbbbbbbbbbbbbbbbbbbbbbbbbbaaaaaaaaaaaaaaaaaaaaaaa----------..-
(PID.TID 0000.0001) //     10 -..-----------aaaaaaaaaaaaaaaaaaaaaaaaaabbbbbbbbbbbbbbbbbbbbbbbbbbbbbbbbccccccccccccccccccccccccccccccccccccccccccccccccccccccccccccccccccccccccccccccccccccccccccccccccccccccccccccbbbbbbbbbbbbbbbbbbbbbbbbbbbbbbbbaaaaaaaaaaaaaaaaaaaaaaaaaa-----------..-
(PID.TID 0000.0001) //      9 -..-------------aaaaaaaaaaaaaaaaaaaaaaaaaaaaabbbbbbbbbbbbbbbbbbbbbbbbbbbbbbbbbbbbbbbccccccccccccccccccccccccccccccccccccccccccccccccccccccccccccccccccccccccccccccccccccbbbbbbbbbbbbbbbbbbbbbbbbbbbbbbbbbbbbbbbaaaaaaaaaaaaaaaaaaaaaaaaaaaaa-------------..-
(PID.TID 0000.0001) //      8 -..---------------aaaaaaaaaaaaaaaaaaaaaaaaaaaaaaaaaabbbbbbbbbbbbbbbbbbbbbbbbbbbbbbbbbbbbbbbbbbbbbbbbbbbbbbbbbbccccccccccccccccccccccccccccccccbbbbbbbbbbbbbbbbbbbbbbbbbbbbbbbbbbbbbbbbbbbbbbbbbbbbbbbbbbaaaaaaaaaaaaaaaaaaaaaaaaaaaaaaaaaa---------------..-
(PID.TID 0000.0001) //      7 -..-----------------aaaaaaaaaaaaaaaaaaaaaaaaaaaaaaaaaaaaaaaaabbbbbbbbbbbbbbbbbbbbbbbbbbbbbbbbbbbbbbbbbbbbbbbbbbbbbbbbbbbbbbbbbbbbbbbbbbbbbbbbbbbbbbbbbbbbbbbbbbbbbbbbbbbbbbbbbbbbbbbbbbbbbbbbbbaaaaaaaaaaaaaaaaaaaaaaaaaaaaaaaaaaaaaaaaa-----------------..-
(PID.TID 0000.0001) //      6 -..---------------------aaaaaaaaaaaaaaaaaaaaaaaaaaaaaaaaaaaaaaaaaaaaaaaaaaaabbbbbbbbbbbbbbbbbbbbbbbbbbbbbbbbbbbbbbbbbbbbbbbbbbbbbbbbbbbbbbbbbbbbbbbbbbbbbbbbbbbbbbbbbbbbbbbbbbbbaaaaaaaaaaaaaaaaaaaaaaaaaaaaaaaaaaaaaaaaaaaaaaaaaaaa---------------------..-
(PID.TID 0000.0001) //      5 -..--------------------------aaaaaaaaaaaaaaaaaaaaaaaaaaaaaaaaaaaaaaaaaaaaaaaaaaaaaaaaaaaaaaaaaaaaaaaaaaaaaaaaaabbbbbbbbbbbbbbbbbbbbbbbbbbbbbbaaaaaaaaaaaaaaaaaaaaaaaaaaaaaaaaaaaaaaaaaaaaaaaaaaaaaaaaaaaaaaaaaaaaaaaaaaaaaaaaaa--------------------------..-
(PID.TID 0000.0001) //      4 -..----------------------------------aaaaaaaaaaaaaaaaaaaaaaaaaaaaaaaaaaaaaaaaaaaaaaaaaaaaaaaaaaaaaaaaaaaaaaaaaaaaaaaaaaaaaaaaaaaaaaaaaaaaaaaaaaaaaaaaaaaaaaaaaaaaaaaaaaaaaaaaaaaaaaaaaaaaaaaaaaaaaaaaaaaaaaaaaaaaaaaaaa----------------------------------..-
(PID.TID 0000.0001) //      3 -..-------------------------------------------------aaaaaaaaaaaaaaaaaaaaaaaaaaaaaaaaaaaaaaaaaaaaaaaaaaaaaaaaaaaaaaaaaaaaaaaaaaaaaaaaaaaaaaaaaaaaaaaaaaaaaaaaaaaaaaaaaaaaaaaaaaaaaaaaaaaaaaaaaaaaaaaaaaaa-------------------------------------------------..-
(PID.TID 0000.0001) //      2 -..------------------------------------------------------------------------------------------------------------------aaaaaaaaaaaaaaaaaa------------------------------------------------------------------------------------------------------------------..-
(PID.TID 0000.0001) //      1 ............................................................................................................................................................................................................................................................
(PID.TID 0000.0001) //      0 ............................................................................................................................................................................................................................................................
(PID.TID 0000.0001) //     -1 -..------------------------------------------------------------------------------------------------------------------aaaaaaaaaaaaaaaaaa------------------------------------------------------------------------------------------------------------------..-
(PID.TID 0000.0001) // =======================================================
(PID.TID 0000.0001) // END OF FIELD                                          =
(PID.TID 0000.0001) // =======================================================
(PID.TID 0000.0001) 
(PID.TID 0000.0001) // =======================================================
(PID.TID 0000.0001) // Field Model Ro_surf (ini_masks_etc)
(PID.TID 0000.0001) // CMIN =          1.000000000000000E+32
(PID.TID 0000.0001) // CMAX =         -1.000000000000000E+32
(PID.TID 0000.0001) // CINT =          0.000000000000000E+00
(PID.TID 0000.0001) // SYMBOLS (CMIN->CMAX): -abcdefghijklmnopqrstuvwxyz+
(PID.TID 0000.0001) //                  0.0: .
(PID.TID 0000.0001) // RANGE I (Lo:Hi:Step):(    -1:   250:     1)
(PID.TID 0000.0001) // RANGE J (Lo:Hi:Step):(   250:    -1:    -1)
(PID.TID 0000.0001) // RANGE K (Lo:Hi:Step):(   1:   1:   1)
(PID.TID 0000.0001) // =======================================================
(PID.TID 0000.0001) // =======================================================
(PID.TID 0000.0001) // END OF FIELD                                          =
(PID.TID 0000.0001) // =======================================================
(PID.TID 0000.0001) 
(PID.TID 0000.0001) // =======================================================
(PID.TID 0000.0001) // Field hFacC at iteration          0
(PID.TID 0000.0001) // CMIN =          9.000040039062500E-01
(PID.TID 0000.0001) // CMAX =          9.999638671875001E-01
(PID.TID 0000.0001) // CINT =          3.702217158564817E-03
(PID.TID 0000.0001) // SYMBOLS (CMIN->CMAX): -abcdefghijklmnopqrstuvwxyz+
(PID.TID 0000.0001) //                  0.0: .
(PID.TID 0000.0001) // RANGE I (Lo:Hi:Step):(    -1:   250:     1)
(PID.TID 0000.0001) // RANGE J (Lo:Hi:Step):(   250:    -1:    -1)
(PID.TID 0000.0001) // RANGE K (Lo:Hi:Step):(   1:   1:   1)
(PID.TID 0000.0001) // =======================================================
(PID.TID 0000.0001) K =   1
(PID.TID 0000.0001) //                I=8       I=18      I=28      I=38      I=48      I=58      I=68      I=78      I=88      I=98      I=108     I=118     I=128     I=138     I=148     I=158     I=168     I=178     I=188     I=198     I=208     I=218     I=228     I=238     I=248
(PID.TID 0000.0001) // |--J--|101234567|901234567|901234567|901234567|901234567|901234567|901234567|901234567|901234567|901234567|901234567|901234567|901234567|901234567|901234567|901234567|901234567|901234567|901234567|901234567|901234567|901234567|901234567|901234567|901234567|90
(PID.TID 0000.0001) //    250 +..++++++++++++++++++++++++++++++++++++++++++++++++++++++++++++++++++++++++++++++++++++++++++++++++++++++++++++++++++zzzzzzzzzzzzzzzzzz++++++++++++++++++++++++++++++++++++++++++++++++++++++++++++++++++++++++++++++++++++++++++++++++++++++++++++++++++..+
(PID.TID 0000.0001) //    249 ............................................................................................................................................................................................................................................................
(PID.TID 0000.0001) //    248 ............................................................................................................................................................................................................................................................
(PID.TID 0000.0001) //    247 +..++++++++++++++++++++++++++++++++++++++++++++++++++++++++++++++++++++++++++++++++++++++++++++++++++++++++++++++++++zzzzzzzzzzzzzzzzzz++++++++++++++++++++++++++++++++++++++++++++++++++++++++++++++++++++++++++++++++++++++++++++++++++++++++++++++++++..+
(PID.TID 0000.0001) //    246 +..+++++++++++++++++++++++++++++++++++++++++++++++++zzzzzzzzzzzzzzzzzzzzzzzzzzzzzzzzzzzzzzzzzzzzzzzzzzzzzzzzzzzzzzzzzzzzzzzzzzzzzzzzzzzzzzzzzzzzzzzzzzzzzzzzzzzzzzzzzzzzzzzzzzzzzzzzzzzzzzzzzzzzzzzzzzzz+++++++++++++++++++++++++++++++++++++++++++++++++..+
(PID.TID 0000.0001) //    245 +..++++++++++++++++++++++++++++++++++zzzzzzzzzzzzzzzzzzzzzzzzzzzzzzzzzzzzzzzzzzzzzzzzzzzzzzzzzzzzzzzzzzzzzzzzzzzzzzzzzzzzzzzzzzzzzzzzzzzzzzzzzzzzzzzzzzzzzzzzzzzzzzzzzzzzzzzzzzzzzzzzzzzzzzzzzzzzzzzzzzzzzzzzzzzzzzzzzz++++++++++++++++++++++++++++++++++..+
(PID.TID 0000.0001) //    244 +..++++++++++++++++++++++++++zzzzzzzzzzzzzzzzzzzzzzzzzzzzzzzzzzzzzzzzzzzzzzzzzzzzzzzzzzzzzzzzzzzzzzzzzzzzzzzzzzyyyyyyyyyyyyyyyyyyyyyyyyyyyyyyzzzzzzzzzzzzzzzzzzzzzzzzzzzzzzzzzzzzzzzzzzzzzzzzzzzzzzzzzzzzzzzzzzzzzzzzzzzzzzzzzz++++++++++++++++++++++++++..+
(PID.TID 0000.0001) //    243 +..+++++++++++++++++++++zzzzzzzzzzzzzzzzzzzzzzzzzzzzzzzzzzzzzzzzzzzzzzzzzzzzyyyyyyyyyyyyyyyyyyyyyyyyyyyyyyyyyyyyyyyyyyyyyyyyyyyyyyyyyyyyyyyyyyyyyyyyyyyyyyyyyyyyyyyyyyyyyyyyyyyyzzzzzzzzzzzzzzzzzzzzzzzzzzzzzzzzzzzzzzzzzzzzzzzzzzzz+++++++++++++++++++++..+
(PID.TID 0000.0001) //    242 +..+++++++++++++++++zzzzzzzzzzzzzzzzzzzzzzzzzzzzzzzzzzzzzzzzzyyyyyyyyyyyyyyyyyyyyyyyyyyyyyyyyyyyyyyyyyyyyyyyyyyyyyyyyyyyyyyyyyyyyyyyyyyyyyyyyyyyyyyyyyyyyyyyyyyyyyyyyyyyyyyyyyyyyyyyyyyyyyyyyyyzzzzzzzzzzzzzzzzzzzzzzzzzzzzzzzzzzzzzzzzz+++++++++++++++++..+
(PID.TID 0000.0001) //    241 +..+++++++++++++++zzzzzzzzzzzzzzzzzzzzzzzzzzzzzzzzzzyyyyyyyyyyyyyyyyyyyyyyyyyyyyyyyyyyyyyyyyyyyyyyyyyyyyyyyyyyxxxxxxxxxxxxxxxxxxxxxxxxxxxxxxxxyyyyyyyyyyyyyyyyyyyyyyyyyyyyyyyyyyyyyyyyyyyyyyyyyyyyyyyyyyzzzzzzzzzzzzzzzzzzzzzzzzzzzzzzzzzz+++++++++++++++..+
(PID.TID 0000.0001) //    240 +..+++++++++++++zzzzzzzzzzzzzzzzzzzzzzzzzzzzzyyyyyyyyyyyyyyyyyyyyyyyyyyyyyyyyyyyyyyyxxxxxxxxxxxxxxxxxxxxxxxxxxxxxxxxxxxxxxxxxxxxxxxxxxxxxxxxxxxxxxxxxxxxxxxxxxxxxxxxxxxxyyyyyyyyyyyyyyyyyyyyyyyyyyyyyyyyyyyyyyyzzzzzzzzzzzzzzzzzzzzzzzzzzzzz+++++++++++++..+
(PID.TID 0000.0001) //    239 +..+++++++++++zzzzzzzzzzzzzzzzzzzzzzzzzzyyyyyyyyyyyyyyyyyyyyyyyyyyyyyyyyxxxxxxxxxxxxxxxxxxxxxxxxxxxxxxxxxxxxxxxxxxxxxxxxxxxxxxxxxxxxxxxxxxxxxxxxxxxxxxxxxxxxxxxxxxxxxxxxxxxxxxxxxxxxyyyyyyyyyyyyyyyyyyyyyyyyyyyyyyyyzzzzzzzzzzzzzzzzzzzzzzzzzz+++++++++++..+
(PID.TID 0000.0001) //    238 +..++++++++++zzzzzzzzzzzzzzzzzzzzzzzyyyyyyyyyyyyyyyyyyyyyyyyyyyxxxxxxxxxxxxxxxxxxxxxxxxxxxxxxxxxxxxxxxxxxxxxxxwwwwwwwwwwwwwwwwwwwwwwwwwwwwwwwwxxxxxxxxxxxxxxxxxxxxxxxxxxxxxxxxxxxxxxxxxxxxxxxyyyyyyyyyyyyyyyyyyyyyyyyyyyzzzzzzzzzzzzzzzzzzzzzzz++++++++++..+
(PID.TID 0000.0001) //    237 +..+++++++++zzzzzzzzzzzzzzzzzzzzzyyyyyyyyyyyyyyyyyyyyyyyyxxxxxxxxxxxxxxxxxxxxxxxxxxxxxxxxxwwwwwwwwwwwwwwwwwwwwwwwwwwwwwwwwwwwwwwwwwwwwwwwwwwwwwwwwwwwwwwwwwwwwwwwwxxxxxxxxxxxxxxxxxxxxxxxxxxxxxxxxxyyyyyyyyyyyyyyyyyyyyyyyyzzzzzzzzzzzzzzzzzzzzz+++++++++..+
(PID.TID 0000.0001) //    236 +..++++++++zzzzzzzzzzzzzzzzzzzzyyyyyyyyyyyyyyyyyyyyyxxxxxxxxxxxxxxxxxxxxxxxxxxwwwwwwwwwwwwwwwwwwwwwwwwwwwwwwwwwwwwwwwwwwwwwwwwwwwwwwwwwwwwwwwwwwwwwwwwwwwwwwwwwwwwwwwwwwwwwwwwxxxxxxxxxxxxxxxxxxxxxxxxxxyyyyyyyyyyyyyyyyyyyyyzzzzzzzzzzzzzzzzzzzz++++++++..+
(PID.TID 0000.0001) //    235 +..++++++++zzzzzzzzzzzzzzzzzyyyyyyyyyyyyyyyyyyyyxxxxxxxxxxxxxxxxxxxxxxxwwwwwwwwwwwwwwwwwwwwwwwwwwwwwwwwwwwwwwwwvvvvvvvvvvvvvvvvvvvvvvvvvvvvvvwwwwwwwwwwwwwwwwwwwwwwwwwwwwwwwwwwwwwwwwxxxxxxxxxxxxxxxxxxxxxxxyyyyyyyyyyyyyyyyyyyyzzzzzzzzzzzzzzzzz++++++++..+
(PID.TID 0000.0001) //    234 +..+++++++zzzzzzzzzzzzzzzzzyyyyyyyyyyyyyyyyyxxxxxxxxxxxxxxxxxxxxwwwwwwwwwwwwwwwwwwwwwwwwwwwwwvvvvvvvvvvvvvvvvvvvvvvvvvvvvvvvvvvvvvvvvvvvvvvvvvvvvvvvvvvvvvvvvvvwwwwwwwwwwwwwwwwwwwwwwwwwwwwwxxxxxxxxxxxxxxxxxxxxyyyyyyyyyyyyyyyyyzzzzzzzzzzzzzzzzz+++++++..+
(PID.TID 0000.0001) //    233 +..+++++++zzzzzzzzzzzzzzzyyyyyyyyyyyyyyyyxxxxxxxxxxxxxxxxxxxwwwwwwwwwwwwwwwwwwwwwwwvvvvvvvvvvvvvvvvvvvvvvvvvvvvvvvvvvvvvvvvvvvvvvvvvvvvvvvvvvvvvvvvvvvvvvvvvvvvvvvvvvvvvvwwwwwwwwwwwwwwwwwwwwwwwxxxxxxxxxxxxxxxxxxxyyyyyyyyyyyyyyyyzzzzzzzzzzzzzzz+++++++..+
(PID.TID 0000.0001) //    232 +..++++++zzzzzzzzzzzzzzzyyyyyyyyyyyyyyyxxxxxxxxxxxxxxxxwwwwwwwwwwwwwwwwwwwwwvvvvvvvvvvvvvvvvvvvvvvvvvvvvvvvvvvvuuuuuuuuuuuuuuuuuuuuuuuuuuuuuuvvvvvvvvvvvvvvvvvvvvvvvvvvvvvvvvvvvwwwwwwwwwwwwwwwwwwwwwxxxxxxxxxxxxxxxxyyyyyyyyyyyyyyyzzzzzzzzzzzzzzz++++++..+
(PID.TID 0000.0001) //    231 +..++++++zzzzzzzzzzzzzyyyyyyyyyyyyyyxxxxxxxxxxxxxxxxwwwwwwwwwwwwwwwwwwvvvvvvvvvvvvvvvvvvvvvvvvvvuuuuuuuuuuuuuuuuuuuuuuuuuuuuuuuuuuuuuuuuuuuuuuuuuuuuuuuuuuuuvvvvvvvvvvvvvvvvvvvvvvvvvvwwwwwwwwwwwwwwwwwwxxxxxxxxxxxxxxxxyyyyyyyyyyyyyyzzzzzzzzzzzzz++++++..+
(PID.TID 0000.0001) //    230 +..+++++zzzzzzzzzzzzzyyyyyyyyyyyyyxxxxxxxxxxxxxxxwwwwwwwwwwwwwwwwvvvvvvvvvvvvvvvvvvvvvvuuuuuuuuuuuuuuuuuuuuuuuuuuuuuuuuuuuuuuuuuuuuuuuuuuuuuuuuuuuuuuuuuuuuuuuuuuuuuuvvvvvvvvvvvvvvvvvvvvvvwwwwwwwwwwwwwwwwxxxxxxxxxxxxxxxyyyyyyyyyyyyyzzzzzzzzzzzzz+++++..+
(PID.TID 0000.0001) //    229 +..+++++zzzzzzzzzzzzyyyyyyyyyyyyyxxxxxxxxxxxxxwwwwwwwwwwwwwwwvvvvvvvvvvvvvvvvvvvuuuuuuuuuuuuuuuuuuuuuuuuuuuuuuuuuttttttttttttttttttttttttttuuuuuuuuuuuuuuuuuuuuuuuuuuuuuuuuuvvvvvvvvvvvvvvvvvvvwwwwwwwwwwwwwwwxxxxxxxxxxxxxyyyyyyyyyyyyyzzzzzzzzzzzz+++++..+
(PID.TID 0000.0001) //    228 +..+++++zzzzzzzzzzzyyyyyyyyyyyyxxxxxxxxxxxxxwwwwwwwwwwwwwwvvvvvvvvvvvvvvvvuuuuuuuuuuuuuuuuuuuuuuuuttttttttttttttttttttttttttttttttttttttttttttttttttttttttuuuuuuuuuuuuuuuuuuuuuuuuvvvvvvvvvvvvvvvvwwwwwwwwwwwwwwxxxxxxxxxxxxxyyyyyyyyyyyyzzzzzzzzzzz+++++..+
(PID.TID 0000.0001) //    227 +..+++++zzzzzzzzzzzyyyyyyyyyyyxxxxxxxxxxxxwwwwwwwwwwwwwvvvvvvvvvvvvvvvuuuuuuuuuuuuuuuuuuuuttttttttttttttttttttttttttttttttttttttttttttttttttttttttttttttttttttttttuuuuuuuuuuuuuuuuuuuuvvvvvvvvvvvvvvvwwwwwwwwwwwwwxxxxxxxxxxxxyyyyyyyyyyyzzzzzzzzzzz+++++..+
(PID.TID 0000.0001) //    226 +..++++zzzzzzzzzzzyyyyyyyyyyyxxxxxxxxxxxwwwwwwwwwwwwvvvvvvvvvvvvvvuuuuuuuuuuuuuuuuutttttttttttttttttttttttttttttttsssssssssssssssssssssssstttttttttttttttttttttttttttttttuuuuuuuuuuuuuuuuuvvvvvvvvvvvvvvwwwwwwwwwwwwxxxxxxxxxxxyyyyyyyyyyyzzzzzzzzzzz++++..+
(PID.TID 0000.0001) //    225 +..++++zzzzzzzzzzyyyyyyyyyyxxxxxxxxxxxwwwwwwwwwwwwvvvvvvvvvvvvvuuuuuuuuuuuuuuuttttttttttttttttttttttssssssssssssssssssssssssssssssssssssssssssssssssssssttttttttttttttttttttttuuuuuuuuuuuuuuuvvvvvvvvvvvvvwwwwwwwwwwwwxxxxxxxxxxxyyyyyyyyyyzzzzzzzzzz++++..+
(PID.TID 0000.0001) //    224 +..++++zzzzzzzzzzyyyyyyyyyxxxxxxxxxxxwwwwwwwwwwwvvvvvvvvvvvvuuuuuuuuuuuuuuttttttttttttttttttssssssssssssssssssssssssssssssssssssssssssssssssssssssssssssssssssssttttttttttttttttttuuuuuuuuuuuuuuvvvvvvvvvvvvwwwwwwwwwwwxxxxxxxxxxxyyyyyyyyyzzzzzzzzzz++++..+
(PID.TID 0000.0001) //    223 +..++++zzzzzzzzzyyyyyyyyyxxxxxxxxxxwwwwwwwwwwwvvvvvvvvvvvuuuuuuuuuuuuuttttttttttttttttssssssssssssssssssssssssssssssrrrrrrrrrrrrrrrrrrrrssssssssssssssssssssssssssssssttttttttttttttttuuuuuuuuuuuuuvvvvvvvvvvvwwwwwwwwwwwxxxxxxxxxxyyyyyyyyyzzzzzzzzz++++..+
(PID.TID 0000.0001) //    222 +..++++zzzzzzzzyyyyyyyyyyxxxxxxxxxwwwwwwwwwwvvvvvvvvvvvuuuuuuuuuuuuttttttttttttttssssssssssssssssssssssrrrrrrrrrrrrrrrrrrrrrrrrrrrrrrrrrrrrrrrrrrrrrrssssssssssssssssssssssttttttttttttttuuuuuuuuuuuuvvvvvvvvvvvwwwwwwwwwwxxxxxxxxxyyyyyyyyyyzzzzzzzz++++..+
(PID.TID 0000.0001) //    221 +..+++zzzzzzzzzyyyyyyyyyxxxxxxxxxwwwwwwwwwvvvvvvvvvvvuuuuuuuuuuutttttttttttttssssssssssssssssssrrrrrrrrrrrrrrrrrrrrrrrrrrrrrrrrrrrrrrrrrrrrrrrrrrrrrrrrrrrrrrsssssssssssssssssstttttttttttttuuuuuuuuuuuvvvvvvvvvvvwwwwwwwwwxxxxxxxxxyyyyyyyyyzzzzzzzzz+++..+
(PID.TID 0000.0001) //    220 +..+++zzzzzzzzzyyyyyyyyxxxxxxxxxwwwwwwwwwvvvvvvvvvvuuuuuuuuuutttttttttttttsssssssssssssssrrrrrrrrrrrrrrrrrrrrrrrrrrrrrrrqqqqqqqqqqqqrrrrrrrrrrrrrrrrrrrrrrrrrrrrrrrssssssssssssssstttttttttttttuuuuuuuuuuvvvvvvvvvvwwwwwwwwwxxxxxxxxxyyyyyyyyzzzzzzzzz+++..+
(PID.TID 0000.0001) //    219 +..+++zzzzzzzzyyyyyyyyxxxxxxxxxwwwwwwwwvvvvvvvvvvuuuuuuuuuutttttttttttssssssssssssssrrrrrrrrrrrrrrrrrrrrrqqqqqqqqqqqqqqqqqqqqqqqqqqqqqqqqqqqqqqqqqqrrrrrrrrrrrrrrrrrrrrrsssssssssssssstttttttttttuuuuuuuuuuvvvvvvvvvvwwwwwwwwxxxxxxxxxyyyyyyyyzzzzzzzz+++..+
(PID.TID 0000.0001) //    218 +..+++zzzzzzzzyyyyyyyyxxxxxxxxwwwwwwwwvvvvvvvvvuuuuuuuuuutttttttttttssssssssssssrrrrrrrrrrrrrrrrrqqqqqqqqqqqqqqqqqqqqqqqqqqqqqqqqqqqqqqqqqqqqqqqqqqqqqqqqqqrrrrrrrrrrrrrrrrrsssssssssssstttttttttttuuuuuuuuuuvvvvvvvvvwwwwwwwwxxxxxxxxyyyyyyyyzzzzzzzz+++..+
(PID.TID 0000.0001) //    217 +..+++zzzzzzzyyyyyyyyxxxxxxxxwwwwwwwwvvvvvvvvvuuuuuuuuuttttttttttssssssssssssrrrrrrrrrrrrrrrqqqqqqqqqqqqqqqqqqqqqqqqqqqqqqqqqqqqqqqqqqqqqqqqqqqqqqqqqqqqqqqqqqqqrrrrrrrrrrrrrrrssssssssssssttttttttttuuuuuuuuuvvvvvvvvvwwwwwwwwxxxxxxxxyyyyyyyyzzzzzzz+++..+
(PID.TID 0000.0001) //    216 +..+++zzzzzzzyyyyyyyxxxxxxxxwwwwwwwwvvvvvvvvuuuuuuuuuttttttttttsssssssssssrrrrrrrrrrrrrqqqqqqqqqqqqqqqqqqqqppppppppppppppppppppppppppppppppppppppqqqqqqqqqqqqqqqqqqqqrrrrrrrrrrrrrsssssssssssttttttttttuuuuuuuuuvvvvvvvvwwwwwwwwxxxxxxxxyyyyyyyzzzzzzz+++..+
(PID.TID 0000.0001) //    215 +..+++zzzzzzzyyyyyyyxxxxxxxwwwwwwwwvvvvvvvvuuuuuuuuttttttttttssssssssssrrrrrrrrrrrrqqqqqqqqqqqqqqqqqppppppppppppppppppppppppppppppppppppppppppppppppppppqqqqqqqqqqqqqqqqqrrrrrrrrrrrrssssssssssttttttttttuuuuuuuuvvvvvvvvwwwwwwwwxxxxxxxyyyyyyyzzzzzzz+++..+
(PID.TID 0000.0001) //    214 +..+++zzzzzzyyyyyyyxxxxxxxxwwwwwwwvvvvvvvvuuuuuuuutttttttttsssssssssrrrrrrrrrrrrqqqqqqqqqqqqqqppppppppppppppppppppppppppppppppppppppppppppppppppppppppppppppppqqqqqqqqqqqqqqrrrrrrrrrrrrssssssssstttttttttuuuuuuuuvvvvvvvvwwwwwwwxxxxxxxxyyyyyyyzzzzzz+++..+
(PID.TID 0000.0001) //    213 +..++zzzzzzzyyyyyyyxxxxxxxwwwwwwwvvvvvvvvuuuuuuutttttttttsssssssssrrrrrrrrrrrqqqqqqqqqqqqqppppppppppppppppppppooooooooooooooooooooooooooooooooppppppppppppppppppppqqqqqqqqqqqqqrrrrrrrrrrrssssssssstttttttttuuuuuuuvvvvvvvvwwwwwwwxxxxxxxyyyyyyyzzzzzzz++..+
(PID.TID 0000.0001) //    212 +..++zzzzzzzyyyyyyyxxxxxxwwwwwwwvvvvvvvuuuuuuuuttttttttsssssssssrrrrrrrrrrqqqqqqqqqqqqppppppppppppppppooooooooooooooooooooooooooooooooooooooooooooooooppppppppppppppppqqqqqqqqqqqqrrrrrrrrrrsssssssssttttttttuuuuuuuuvvvvvvvwwwwwwwxxxxxxyyyyyyyzzzzzzz++..+
(PID.TID 0000.0001) //    211 +..++zzzzzzzyyyyyyxxxxxxxwwwwwwvvvvvvvuuuuuuuuttttttttssssssssrrrrrrrrrqqqqqqqqqqqpppppppppppppppoooooooooooooooooooooooooooooooooooooooooooooooooooooooooopppppppppppppppqqqqqqqqqqqrrrrrrrrrssssssssttttttttuuuuuuuuvvvvvvvwwwwwwxxxxxxxyyyyyyzzzzzzz++..+
(PID.TID 0000.0001) //    210 +..++zzzzzzyyyyyyyxxxxxxwwwwwwwvvvvvvvuuuuuuutttttttssssssssrrrrrrrrrqqqqqqqqqqpppppppppppppoooooooooooooooooooooonnnnnnnnnnnnnnnnnnnnnnnnoooooooooooooooooooooopppppppppppppqqqqqqqqqqrrrrrrrrrsssssssstttttttuuuuuuuvvvvvvvwwwwwwwxxxxxxyyyyyyyzzzzzz++..+
(PID.TID 0000.0001) //    209 +..++zzzzzzyyyyyyxxxxxxxwwwwwwvvvvvvvuuuuuuutttttttssssssssrrrrrrrrqqqqqqqqqqpppppppppppooooooooooooooooonnnnnnnnnnnnnnnnnnnnnnnnnnnnnnnnnnnnnnnnnnooooooooooooooooopppppppppppqqqqqqqqqqrrrrrrrrsssssssstttttttuuuuuuuvvvvvvvwwwwwwxxxxxxxyyyyyyzzzzzz++..+
(PID.TID 0000.0001) //    208 +..++zzzzzzyyyyyyxxxxxxwwwwwwvvvvvvvuuuuuuutttttttsssssssrrrrrrrrqqqqqqqqqpppppppppppoooooooooooooonnnnnnnnnnnnnnnnnnnnnnnnnnnnnnnnnnnnnnnnnnnnnnnnnnnnnnoooooooooooooopppppppppppqqqqqqqqqrrrrrrrrssssssstttttttuuuuuuuvvvvvvvwwwwwwxxxxxxyyyyyyzzzzzz++..+
(PID.TID 0000.0001) //    207 +..++zzzzzzyyyyyyxxxxxxwwwwwwvvvvvvuuuuuuuttttttssssssssrrrrrrrqqqqqqqqqppppppppppooooooooooooonnnnnnnnnnnnnnnnnnnnnnnnnmmmmmmmmmmmmnnnnnnnnnnnnnnnnnnnnnnnnnoooooooooooooppppppppppqqqqqqqqqrrrrrrrssssssssttttttuuuuuuuvvvvvvwwwwwwxxxxxxyyyyyyzzzzzz++..+
(PID.TID 0000.0001) //    206 +..++zzzzzzyyyyyxxxxxxwwwwwwvvvvvvuuuuuuuttttttsssssssrrrrrrrrqqqqqqqqpppppppppoooooooooooonnnnnnnnnnnnnnnnnmmmmmmmmmmmmmmmmmmmmmmmmmmmmmmmmmmmmnnnnnnnnnnnnnnnnnoooooooooooopppppppppqqqqqqqqrrrrrrrrsssssssttttttuuuuuuuvvvvvvwwwwwwxxxxxxyyyyyzzzzzz++..+
(PID.TID 0000.0001) //    205 +..++zzzzzyyyyyyxxxxxxwwwwwwvvvvvvuuuuuuttttttsssssssrrrrrrrqqqqqqqqpppppppppooooooooooonnnnnnnnnnnnnnmmmmmmmmmmmmmmmmmmmmmmmmmmmmmmmmmmmmmmmmmmmmmmmmnnnnnnnnnnnnnnooooooooooopppppppppqqqqqqqqrrrrrrrsssssssttttttuuuuuuvvvvvvwwwwwwxxxxxxyyyyyyzzzzz++..+
(PID.TID 0000.0001) //    204 +..++zzzzzyyyyyyxxxxxwwwwwwvvvvvvuuuuuuttttttsssssssrrrrrrrqqqqqqqpppppppppoooooooooonnnnnnnnnnnnnmmmmmmmmmmmmmmmmmmmmmmmmmmmmmmmmmmmmmmmmmmmmmmmmmmmmmmmmnnnnnnnnnnnnnoooooooooopppppppppqqqqqqqrrrrrrrsssssssttttttuuuuuuvvvvvvwwwwwwxxxxxyyyyyyzzzzz++..+
(PID.TID 0000.0001) //    203 +..++zzzzzyyyyyyxxxxxwwwwwwvvvvvuuuuuuttttttsssssssrrrrrrqqqqqqqqppppppppooooooooonnnnnnnnnnnnmmmmmmmmmmmmmmmmmmmllllllllllllllllllllllllllmmmmmmmmmmmmmmmmmmmnnnnnnnnnnnnoooooooooppppppppqqqqqqqqrrrrrrsssssssttttttuuuuuuvvvvvwwwwwwxxxxxyyyyyyzzzzz++..+
(PID.TID 0000.0001) //    202 +..++zzzzzyyyyyxxxxxxwwwwwvvvvvvuuuuuttttttsssssssrrrrrrqqqqqqqppppppppooooooooonnnnnnnnnnmmmmmmmmmmmmmmmmllllllllllllllllllllllllllllllllllllllllmmmmmmmmmmmmmmmmnnnnnnnnnnoooooooooppppppppqqqqqqqrrrrrrsssssssttttttuuuuuvvvvvvwwwwwxxxxxxyyyyyzzzzz++..+
(PID.TID 0000.0001) //    201 +..++zzzzzyyyyyxxxxxwwwwwwvvvvvuuuuuuttttttssssssrrrrrrqqqqqqqpppppppooooooooonnnnnnnnnnmmmmmmmmmmmmmllllllllllllllllllllllllllllllllllllllllllllllllllmmmmmmmmmmmmmnnnnnnnnnnooooooooopppppppqqqqqqqrrrrrrssssssttttttuuuuuuvvvvvwwwwwwxxxxxyyyyyzzzzz++..+
(PID.TID 0000.0001) //    200 +..++zzzzzyyyyyxxxxxwwwwwvvvvvvuuuuuttttttssssssrrrrrrqqqqqqppppppppoooooooonnnnnnnnnmmmmmmmmmmmmllllllllllllllllllllllkkkkkkkkkkkkkkllllllllllllllllllllllmmmmmmmmmmmmnnnnnnnnnooooooooppppppppqqqqqqrrrrrrssssssttttttuuuuuvvvvvvwwwwwxxxxxyyyyyzzzzz++..+
(PID.TID 0000.0001) //    199 +..++zzzzzyyyyyxxxxxwwwwwvvvvvuuuuuttttttssssssrrrrrrqqqqqqpppppppoooooooonnnnnnnnnmmmmmmmmmmlllllllllllllllllkkkkkkkkkkkkkkkkkkkkkkkkkkkkkkkklllllllllllllllllmmmmmmmmmmnnnnnnnnnoooooooopppppppqqqqqqrrrrrrssssssttttttuuuuuvvvvvwwwwwxxxxxyyyyyzzzzz++..+
(PID.TID 0000.0001) //    198 +..+zzzzzyyyyyxxxxxwwwwwvvvvvvuuuuutttttssssssrrrrrrqqqqqqpppppppooooooonnnnnnnnmmmmmmmmmmllllllllllllllkkkkkkkkkkkkkkkkkkkkkkkkkkkkkkkkkkkkkkkkkkkkllllllllllllllmmmmmmmmmmnnnnnnnnooooooopppppppqqqqqqrrrrrrsssssstttttuuuuuvvvvvvwwwwwxxxxxyyyyyzzzzz+..+
(PID.TID 0000.0001) //    197 +..+zzzzzyyyyyxxxxxwwwwwvvvvvuuuuuttttttsssssrrrrrrqqqqqqppppppoooooooonnnnnnnmmmmmmmmmmllllllllllllkkkkkkkkkkkkkkkkkkkkkkkkkkkkkkkkkkkkkkkkkkkkkkkkkkkkllllllllllllmmmmmmmmmmnnnnnnnooooooooppppppqqqqqqrrrrrrsssssttttttuuuuuvvvvvwwwwwxxxxxyyyyyzzzzz+..+
(PID.TID 0000.0001) //    196 +..+zzzzzyyyyyxxxxxwwwwwvvvvvuuuuutttttsssssrrrrrrqqqqqqppppppooooooonnnnnnnnmmmmmmmmlllllllllllkkkkkkkkkkkkkkkkkkkjjjjjjjjjjjjjjjjjjjjjjkkkkkkkkkkkkkkkkkkklllllllllllmmmmmmmmnnnnnnnnoooooooppppppqqqqqqrrrrrrssssstttttuuuuuvvvvvwwwwwxxxxxyyyyyzzzzz+..+
(PID.TID 0000.0001) //    195 +..+zzzzzyyyyyxxxxwwwwwvvvvvuuuuutttttssssssrrrrrqqqqqqppppppooooooonnnnnnnmmmmmmmmllllllllllkkkkkkkkkkkkkkkjjjjjjjjjjjjjjjjjjjjjjjjjjjjjjjjjjjjkkkkkkkkkkkkkkkllllllllllmmmmmmmmnnnnnnnoooooooppppppqqqqqqrrrrrsssssstttttuuuuuvvvvvwwwwwxxxxyyyyyzzzzz+..+
(PID.TID 0000.0001) //    194 +..+zzzzzyyyyyxxxxwwwwwvvvvvuuuuutttttsssssrrrrrqqqqqqppppppoooooonnnnnnnmmmmmmmmllllllllllkkkkkkkkkkkkkjjjjjjjjjjjjjjjjjjjjjjjjjjjjjjjjjjjjjjjjjjjjkkkkkkkkkkkkkllllllllllmmmmmmmmnnnnnnnooooooppppppqqqqqqrrrrrssssstttttuuuuuvvvvvwwwwwxxxxyyyyyzzzzz+..+
(PID.TID 0000.0001) //    193 +..+zzzzzyyyyxxxxxwwwwwvvvvuuuuutttttsssssrrrrrqqqqqqppppppoooooonnnnnnnmmmmmmmlllllllllkkkkkkkkkkkkjjjjjjjjjjjjjjjjjjjjjjjjjjjjjjjjjjjjjjjjjjjjjjjjjjjjkkkkkkkkkkkklllllllllmmmmmmmnnnnnnnooooooppppppqqqqqqrrrrrssssstttttuuuuuvvvvwwwwwxxxxxyyyyzzzzz+..+
(PID.TID 0000.0001) //    192 +..+zzzzzyyyyxxxxxwwwwvvvvvuuuuutttttsssssrrrrrqqqqqppppppoooooonnnnnnmmmmmmmmllllllllkkkkkkkkkkkjjjjjjjjjjjjjjjjjiiiiiiiiiiiiiiiiiiiiiiiijjjjjjjjjjjjjjjjjkkkkkkkkkkkllllllllmmmmmmmmnnnnnnooooooppppppqqqqqrrrrrssssstttttuuuuuvvvvvwwwwxxxxxyyyyzzzzz+..+
(PID.TID 0000.0001) //    191 +..+zzzzzyyyyxxxxxwwwwvvvvvuuuutttttsssssrrrrrqqqqqppppppoooooonnnnnnmmmmmmmllllllllkkkkkkkkkkjjjjjjjjjjjjjjiiiiiiiiiiiiiiiiiiiiiiiiiiiiiiiiiiiijjjjjjjjjjjjjjkkkkkkkkkkllllllllmmmmmmmnnnnnnooooooppppppqqqqqrrrrrssssstttttuuuuvvvvvwwwwxxxxxyyyyzzzzz+..+
(PID.TID 0000.0001) //    190 +..+zzzzzyyyyxxxxwwwwwvvvvuuuuutttttssssrrrrrqqqqqppppppoooooonnnnnnmmmmmmmlllllllkkkkkkkkkjjjjjjjjjjjjjiiiiiiiiiiiiiiiiiiiiiiiiiiiiiiiiiiiiiiiiiiiijjjjjjjjjjjjjkkkkkkkkklllllllmmmmmmmnnnnnnooooooppppppqqqqqrrrrrsssstttttuuuuuvvvvwwwwwxxxxyyyyzzzzz+..+
(PID.TID 0000.0001) //    189 +..+zzzzyyyyyxxxxwwwwvvvvvuuuutttttsssssrrrrrqqqqqpppppoooooonnnnnnmmmmmmllllllllkkkkkkkkjjjjjjjjjjjiiiiiiiiiiiiiiiiiiiiiiiiiiiiiiiiiiiiiiiiiiiiiiiiiiiijjjjjjjjjjjkkkkkkkkllllllllmmmmmmnnnnnnoooooopppppqqqqqrrrrrssssstttttuuuuvvvvvwwwwxxxxyyyyyzzzz+..+
(PID.TID 0000.0001) //    188 +..+zzzzyyyyyxxxxwwwwvvvvvuuuutttttssssrrrrrqqqqqpppppoooooonnnnnnmmmmmmlllllllkkkkkkkkjjjjjjjjjjiiiiiiiiiiiiiiiiihhhhhhhhhhhhhhhhhhhhhhhhiiiiiiiiiiiiiiiiijjjjjjjjjjkkkkkkkklllllllmmmmmmnnnnnnoooooopppppqqqqqrrrrrsssstttttuuuuvvvvvwwwwxxxxyyyyyzzzz+..+
(PID.TID 0000.0001) //    187 +..+zzzzyyyyxxxxxwwwwvvvvuuuuuttttsssssrrrrqqqqqpppppoooooonnnnnnmmmmmmlllllllkkkkkkkjjjjjjjjjjiiiiiiiiiiiiihhhhhhhhhhhhhhhhhhhhhhhhhhhhhhhhhhhhiiiiiiiiiiiiijjjjjjjjjjkkkkkkklllllllmmmmmmnnnnnnoooooopppppqqqqqrrrrsssssttttuuuuuvvvvwwwwxxxxxyyyyzzzz+..+
(PID.TID 0000.0001) //    186 +..+zzzzyyyyxxxxwwwwwvvvvuuuutttttssssrrrrrqqqqqpppppooooonnnnnnmmmmmmllllllkkkkkkkkjjjjjjjjiiiiiiiiiiiihhhhhhhhhhhhhhhhhhhhhhhhhhhhhhhhhhhhhhhhhhhhiiiiiiiiiiiijjjjjjjjkkkkkkkkllllllmmmmmmnnnnnnooooopppppqqqqqrrrrrsssstttttuuuuvvvvwwwwwxxxxyyyyzzzz+..+
(PID.TID 0000.0001) //    185 +..+zzzzyyyyxxxxwwwwvvvvvuuuuttttsssssrrrrqqqqqpppppooooonnnnnnmmmmmlllllllkkkkkkkjjjjjjjjiiiiiiiiiiihhhhhhhhhhhhhhhhhhhhhhhhhhhhhhhhhhhhhhhhhhhhhhhhhhiiiiiiiiiiijjjjjjjjkkkkkkklllllllmmmmmnnnnnnooooopppppqqqqqrrrrsssssttttuuuuvvvvvwwwwxxxxyyyyzzzz+..+
(PID.TID 0000.0001) //    184 +..+zzzzyyyyxxxxwwwwvvvvuuuuuttttssssrrrrrqqqqpppppooooonnnnnnmmmmmlllllllkkkkkkjjjjjjjjiiiiiiiiiihhhhhhhhhhhhhhhhhgggggggggggggggggggggghhhhhhhhhhhhhhhhhiiiiiiiiiijjjjjjjjkkkkkklllllllmmmmmnnnnnnooooopppppqqqqrrrrrssssttttuuuuuvvvvwwwwxxxxyyyyzzzz+..+
(PID.TID 0000.0001) //    183 +..+zzzzyyyyxxxxwwwwvvvvuuuutttttssssrrrrqqqqqpppppooooonnnnnmmmmmllllllkkkkkkkjjjjjjjjiiiiiiiiihhhhhhhhhhhhhhgggggggggggggggggggggggggggggggghhhhhhhhhhhhhhiiiiiiiiijjjjjjjjkkkkkkkllllllmmmmmnnnnnooooopppppqqqqqrrrrsssstttttuuuuvvvvwwwwxxxxyyyyzzzz+..+
(PID.TID 0000.0001) //    182 +..+zzzzyyyyxxxxwwwwvvvvuuuuttttssssrrrrrqqqqpppppooooonnnnnmmmmmllllllkkkkkkkjjjjjjjiiiiiiiiihhhhhhhhhhhhgggggggggggggggggggggggggggggggggggggggghhhhhhhhhhhhiiiiiiiiijjjjjjjkkkkkkkllllllmmmmmnnnnnooooopppppqqqqrrrrrssssttttuuuuvvvvwwwwxxxxyyyyzzzz+..+
(PID.TID 0000.0001) //    181 +..+zzzzyyyyxxxxwwwwvvvvuuuuttttssssrrrrqqqqqppppooooonnnnnmmmmmmlllllkkkkkkkjjjjjjjiiiiiiiihhhhhhhhhhhgggggggggggggggggggggggggggggggggggggggggggggghhhhhhhhhhhiiiiiiiijjjjjjjkkkkkkklllllmmmmmmnnnnnoooooppppqqqqqrrrrssssttttuuuuvvvvwwwwxxxxyyyyzzzz+..+
(PID.TID 0000.0001) //    180 +..+zzzzyyyyxxxxwwwvvvvuuuuttttsssssrrrrqqqqpppppooooonnnnmmmmmmlllllkkkkkkjjjjjjjiiiiiiiihhhhhhhhhhggggggggggggggggggffffffffffffffffgggggggggggggggggghhhhhhhhhhiiiiiiiijjjjjjjkkkkkklllllmmmmmmnnnnooooopppppqqqqrrrrsssssttttuuuuvvvvwwwxxxxyyyyzzzz+..+
(PID.TID 0000.0001) //    179 +..+zzzzyyyyxxxwwwwvvvvuuuuttttssssrrrrqqqqqppppooooonnnnnmmmmmlllllkkkkkkjjjjjjjiiiiiiihhhhhhhhhhggggggggggggggffffffffffffffffffffffffffffgggggggggggggghhhhhhhhhhiiiiiiijjjjjjjkkkkkklllllmmmmmnnnnnoooooppppqqqqqrrrrssssttttuuuuvvvvwwwwxxxyyyyzzzz+..+
(PID.TID 0000.0001) //    178 +..+zzzzyyyxxxxwwwwvvvvuuuuttttssssrrrrqqqqpppppoooonnnnnmmmmmlllllkkkkkkjjjjjjjiiiiiiihhhhhhhhhggggggggggggffffffffffffffffffffffffffffffffffffgggggggggggghhhhhhhhhiiiiiiijjjjjjjkkkkkklllllmmmmmnnnnnoooopppppqqqqrrrrssssttttuuuuvvvvwwwwxxxxyyyzzzz+..+
(PID.TID 0000.0001) //    177 +..+zzzzyyyxxxxwwwwvvvvuuuuttttssssrrrrqqqqppppooooonnnnmmmmmllllllkkkkkjjjjjjiiiiiiihhhhhhhhhgggggggggggffffffffffffffffffffffffffffffffffffffffffggggggggggghhhhhhhhhiiiiiiijjjjjjkkkkkllllllmmmmmnnnnoooooppppqqqqrrrrssssttttuuuuvvvvwwwwxxxxyyyzzzz+..+
(PID.TID 0000.0001) //    176 +..+zzzzyyyxxxxwwwwvvvuuuuttttssssrrrrqqqqpppppoooonnnnnmmmmmlllllkkkkkjjjjjjiiiiiiihhhhhhhhggggggggggffffffffffffffffffffffffffffffffffffffffffffffffgggggggggghhhhhhhhiiiiiiijjjjjjkkkkklllllmmmmmnnnnnoooopppppqqqqrrrrssssttttuuuuvvvwwwwxxxxyyyzzzz+..+
(PID.TID 0000.0001) //    175 +..+zzzzyyyxxxxwwwwvvvuuuuttttssssrrrrqqqqppppooooonnnnmmmmmlllllkkkkkjjjjjjiiiiiiihhhhhhhggggggggggffffffffffffffffeeeeeeeeeeeeeeeeeeeeffffffffffffffffgggggggggghhhhhhhiiiiiiijjjjjjkkkkklllllmmmmmnnnnoooooppppqqqqrrrrssssttttuuuuvvvwwwwxxxxyyyzzzz+..+
(PID.TID 0000.0001) //    174 +..+zzzyyyyxxxxwwwvvvvuuuuttttssssrrrrqqqqppppoooonnnnnmmmmlllllkkkkkkjjjjjiiiiiiihhhhhhhgggggggggffffffffffffffeeeeeeeeeeeeeeeeeeeeeeeeeeeeffffffffffffffggggggggghhhhhhhiiiiiiijjjjjkkkkkklllllmmmmnnnnnooooppppqqqqrrrrssssttttuuuuvvvvwwwxxxxyyyyzzz+..+
(PID.TID 0000.0001) //    173 +..+zzzyyyyxxxxwwwvvvvuuuutttssssrrrrqqqqppppooooonnnnmmmmmlllllkkkkkjjjjjiiiiiiihhhhhhhggggggggffffffffffffeeeeeeeeeeeeeeeeeeeeeeeeeeeeeeeeeeeeffffffffffffgggggggghhhhhhhiiiiiiijjjjjkkkkklllllmmmmmnnnnoooooppppqqqqrrrrsssstttuuuuvvvvwwwxxxxyyyyzzz+..+
(PID.TID 0000.0001) //    172 +..+zzzyyyyxxxwwwwvvvvuuuttttssssrrrrqqqqppppoooonnnnmmmmmlllllkkkkkjjjjjiiiiiihhhhhhhggggggggfffffffffffeeeeeeeeeeeeeeeeeeeeeeeeeeeeeeeeeeeeeeeeeefffffffffffgggggggghhhhhhhiiiiiijjjjjkkkkklllllmmmmmnnnnooooppppqqqqrrrrssssttttuuuvvvvwwwwxxxyyyyzzz+..+
(PID.TID 0000.0001) //    171 +..+zzzyyyyxxxwwwwvvvvuuuttttssssrrrrqqqppppooooonnnnmmmmlllllkkkkkjjjjjjiiiiihhhhhhhggggggggffffffffffeeeeeeeeeeeeeeeeeeeeeeeeeeeeeeeeeeeeeeeeeeeeeeffffffffffgggggggghhhhhhhiiiiijjjjjjkkkkklllllmmmmnnnnoooooppppqqqrrrrssssttttuuuvvvvwwwwxxxyyyyzzz+..+
(PID.TID 0000.0001) //    170 +..+zzzyyyyxxxwwwwvvvuuuuttttsssrrrrqqqqppppoooonnnnmmmmmlllllkkkkjjjjjjiiiiiihhhhhhgggggggffffffffffeeeeeeeeeeeeeeeeddddddddddddddddddeeeeeeeeeeeeeeeeffffffffffggggggghhhhhhiiiiiijjjjjjkkkklllllmmmmmnnnnooooppppqqqqrrrrsssttttuuuuvvvwwwwxxxyyyyzzz+..+
(PID.TID 0000.0001) //    169 +..+zzzyyyyxxxwwwwvvvuuuutttssssrrrrqqqqppppoooonnnnmmmmlllllkkkkkjjjjjiiiiiihhhhhhgggggggfffffffffeeeeeeeeeeeeeeddddddddddddddddddddddddddeeeeeeeeeeeeeefffffffffggggggghhhhhhiiiiiijjjjjkkkkklllllmmmmnnnnooooppppqqqqrrrrsssstttuuuuvvvwwwwxxxyyyyzzz+..+
(PID.TID 0000.0001) //    168 +..+zzzyyyyxxxwwwwvvvuuuutttssssrrrrqqqppppoooonnnnnmmmmllllkkkkkjjjjjiiiiiihhhhhhgggggggffffffffeeeeeeeeeeeeddddddddddddddddddddddddddddddddddeeeeeeeeeeeeffffffffggggggghhhhhhiiiiiijjjjjkkkkkllllmmmmnnnnnooooppppqqqrrrrsssstttuuuuvvvwwwwxxxyyyyzzz+..+
(PID.TID 0000.0001) //    167 +..+zzzyyyyxxxwwwvvvvuuuttttssssrrrqqqqppppoooonnnnmmmmlllllkkkkkjjjjjiiiiihhhhhhgggggggffffffffeeeeeeeeeeeddddddddddddddddddddddddddddddddddddddeeeeeeeeeeeffffffffggggggghhhhhhiiiiijjjjjkkkkklllllmmmmnnnnooooppppqqqqrrrssssttttuuuvvvvwwwxxxyyyyzzz+..+
(PID.TID 0000.0001) //    166 +..+zzzyyyxxxxwwwvvvvuuuttttsssrrrrqqqqppppoooonnnnmmmmllllkkkkkjjjjjiiiiihhhhhhgggggggfffffffeeeeeeeeeeeddddddddddddddddddddddddddddddddddddddddddeeeeeeeeeeefffffffggggggghhhhhhiiiiijjjjjkkkkkllllmmmmnnnnooooppppqqqqrrrrsssttttuuuvvvvwwwxxxxyyyzzz+..+
(PID.TID 0000.0001) //    165 +..+zzzyyyxxxxwwwvvvvuuuttttsssrrrrqqqqpppoooonnnnmmmmlllllkkkkjjjjjiiiiihhhhhhgggggggfffffffeeeeeeeeeedddddddddddddddddddccccccccdddddddddddddddddddeeeeeeeeeefffffffggggggghhhhhhiiiiijjjjjkkkklllllmmmmnnnnoooopppqqqqrrrrsssttttuuuvvvvwwwxxxxyyyzzz+..+
(PID.TID 0000.0001) //    164 +..+zzzyyyxxxxwwwvvvvuuutttssssrrrrqqqppppoooonnnnmmmmllllkkkkkjjjjjiiiiihhhhhgggggggfffffffeeeeeeeeedddddddddddddddccccccccccccccccccccdddddddddddddddeeeeeeeeefffffffggggggghhhhhiiiiijjjjjkkkkkllllmmmmnnnnooooppppqqqrrrrsssstttuuuvvvvwwwxxxxyyyzzz+..+
(PID.TID 0000.0001) //    163 +..+zzzyyyxxxxwwwvvvuuuutttssssrrrqqqqppppoooonnnnmmmmllllkkkkjjjjjiiiiihhhhhhggggggfffffffeeeeeeeedddddddddddddccccccccccccccccccccccccccccdddddddddddddeeeeeeeefffffffgggggghhhhhhiiiiijjjjjkkkkllllmmmmnnnnooooppppqqqqrrrsssstttuuuuvvvwwwxxxxyyyzzz+..+
(PID.TID 0000.0001) //    162 +..+zzzyyyxxxxwwwvvvuuuutttssssrrrqqqqpppoooonnnnmmmmllllkkkkkjjjjiiiiihhhhhhggggggfffffffeeeeeeeeddddddddddddccccccccccccccccccccccccccccccccddddddddddddeeeeeeeefffffffgggggghhhhhhiiiiijjjjkkkkkllllmmmmnnnnoooopppqqqqrrrsssstttuuuuvvvwwwxxxxyyyzzz+..+
(PID.TID 0000.0001) //    161 +..+zzzyyyxxxxwwwvvvuuuutttsssrrrrqqqqpppoooonnnnmmmmllllkkkkjjjjjiiiiihhhhhggggggfffffffeeeeeeeeddddddddddccccccccccccccccccccccccccccccccccccccddddddddddeeeeeeeefffffffgggggghhhhhiiiiijjjjjkkkkllllmmmmnnnnoooopppqqqqrrrrssstttuuuuvvvwwwxxxxyyyzzz+..+
(PID.TID 0000.0001) //    160 +..+zzzyyyxxxwwwwvvvuuuttttsssrrrrqqqppppoooonnnmmmmlllllkkkkjjjjiiiiihhhhhggggggfffffffeeeeeeedddddddddddccccccccccccccccccccccccccccccccccccccccdddddddddddeeeeeeefffffffgggggghhhhhiiiiijjjjkkkklllllmmmmnnnooooppppqqqrrrrsssttttuuuvvvwwwwxxxyyyzzz+..+
(PID.TID 0000.0001) //    159 +..+zzzyyyxxxwwwwvvvuuuttttsssrrrrqqqppppooonnnnmmmmllllkkkkjjjjjiiiiihhhhhgggggfffffffeeeeeeeddddddddddccccccccccccccccccccccccccccccccccccccccccccddddddddddeeeeeeefffffffggggghhhhhiiiiijjjjjkkkkllllmmmmnnnnoooppppqqqrrrrsssttttuuuvvvwwwwxxxyyyzzz+..+
(PID.TID 0000.0001) //    158 +..+zzzyyyxxxwwwwvvvuuutttssssrrrqqqqpppoooonnnnmmmmllllkkkkjjjjiiiiihhhhhggggggffffffeeeeeeedddddddddcccccccccccccccccbbbbbbbbbbbbbbcccccccccccccccccdddddddddeeeeeeeffffffgggggghhhhhiiiiijjjjkkkkllllmmmmnnnnoooopppqqqqrrrsssstttuuuvvvwwwwxxxyyyzzz+..+
(PID.TID 0000.0001) //    157 +..+zzzyyyxxxwwwvvvvuuutttssssrrrqqqqpppoooonnnnmmmllllkkkkkjjjjiiiiihhhhhgggggffffffeeeeeeedddddddddccccccccccccccbbbbbbbbbbbbbbbbbbbbbbccccccccccccccdddddddddeeeeeeeffffffggggghhhhhiiiiijjjjkkkkkllllmmmnnnnoooopppqqqqrrrsssstttuuuvvvvwwwxxxyyyzzz+..+
(PID.TID 0000.0001) //    156 +..+zzzyyyxxxwwwvvvvuuutttssssrrrqqqppppoooonnnmmmmllllkkkkjjjjjiiiihhhhhgggggffffffeeeeeeedddddddddccccccccccccbbbbbbbbbbbbbbbbbbbbbbbbbbbbccccccccccccdddddddddeeeeeeeffffffggggghhhhhiiiijjjjjkkkkllllmmmmnnnooooppppqqqrrrsssstttuuuvvvvwwwxxxyyyzzz+..+
(PID.TID 0000.0001) //    155 +..+zzzyyyxxxwwwvvvvuuutttsssrrrrqqqppppooonnnnmmmmllllkkkkjjjjiiiiihhhhhgggggffffffeeeeeeddddddddccccccccccccbbbbbbbbbbbbbbbbbbbbbbbbbbbbbbbbccccccccccccddddddddeeeeeeffffffggggghhhhhiiiiijjjjkkkkllllmmmmnnnnoooppppqqqrrrrssstttuuuvvvvwwwxxxyyyzzz+..+
(PID.TID 0000.0001) //    154 +..+zzzyyyxxxwwwvvvuuuutttsssrrrrqqqppppooonnnnmmmmlllkkkkkjjjjiiiihhhhhgggggffffffeeeeeeedddddddcccccccccccbbbbbbbbbbbbbbbbbbbbbbbbbbbbbbbbbbbbcccccccccccdddddddeeeeeeeffffffggggghhhhhiiiijjjjkkkkklllmmmmnnnnoooppppqqqrrrrssstttuuuuvvvwwwxxxyyyzzz+..+
(PID.TID 0000.0001) //    153 +..+zzzyyyxxxwwwvvvuuuutttsssrrrqqqqpppoooonnnnmmmllllkkkkjjjjiiiiihhhhhgggggfffffeeeeeeedddddddcccccccccccbbbbbbbbbbbbbbbbbbbbbbbbbbbbbbbbbbbbbbcccccccccccdddddddeeeeeeefffffggggghhhhhiiiiijjjjkkkkllllmmmnnnnoooopppqqqqrrrssstttuuuuvvvwwwxxxyyyzzz+..+
(PID.TID 0000.0001) //    152 +..+zzzyyyxxxwwwvvvuuuttttsssrrrqqqqpppoooonnnmmmmllllkkkkjjjjiiiihhhhhgggggffffffeeeeeedddddddccccccccccbbbbbbbbbbbbbbbbbbbbbbbbbbbbbbbbbbbbbbbbbbccccccccccdddddddeeeeeeffffffggggghhhhhiiiijjjjkkkkllllmmmmnnnoooopppqqqqrrrsssttttuuuvvvwwwxxxyyyzzz+..+
(PID.TID 0000.0001) //    151 +..+zzzyyyxxxwwwvvvuuuttttsssrrrqqqqpppooonnnnmmmmllllkkkkjjjjiiiihhhhhgggggfffffeeeeeeddddddddcccccccccbbbbbbbbbbbbbbbbbbbbbbbbbbbbbbbbbbbbbbbbbbbbcccccccccddddddddeeeeeefffffggggghhhhhiiiijjjjkkkkllllmmmmnnnnooopppqqqqrrrsssttttuuuvvvwwwxxxyyyzzz+..+
(PID.TID 0000.0001) //    150 +..+zzzyyyxxxwwwvvvuuutttssssrrrqqqppppooonnnnmmmmlllkkkkjjjjiiiiihhhhgggggffffffeeeeeedddddddcccccccccbbbbbbbbbbbbbbbbaaaaaaaaaaaaaabbbbbbbbbbbbbbbbcccccccccdddddddeeeeeeffffffggggghhhhiiiiijjjjkkkklllmmmmnnnnoooppppqqqrrrsssstttuuuvvvwwwxxxyyyzzz+..+
(PID.TID 0000.0001) //    149 +..+zzzyyyxxxwwwvvvuuutttssssrrrqqqppppooonnnnmmmllllkkkkjjjjiiiihhhhhgggggfffffeeeeeedddddddcccccccccbbbbbbbbbbbbbbaaaaaaaaaaaaaaaaaaaabbbbbbbbbbbbbbcccccccccdddddddeeeeeefffffggggghhhhhiiiijjjjkkkkllllmmmnnnnoooppppqqqrrrsssstttuuuvvvwwwxxxyyyzzz+..+
(PID.TID 0000.0001) //    148 +..+zzzyyyxxxwwwvvvuuutttssssrrrqqqpppoooonnnmmmmllllkkkkjjjjiiiihhhhhggggffffffeeeeeeddddddcccccccccbbbbbbbbbbbbbaaaaaaaaaaaaaaaaaaaaaaaabbbbbbbbbbbbbcccccccccddddddeeeeeeffffffgggghhhhhiiiijjjjkkkkllllmmmmnnnoooopppqqqrrrsssstttuuuvvvwwwxxxyyyzzz+..+
(PID.TID 0000.0001) //    147 +..+zzzyyyxxxwwwvvvuuutttsssrrrrqqqpppoooonnnmmmmllllkkkkjjjjiiiihhhhgggggfffffeeeeeedddddddccccccccbbbbbbbbbbbbaaaaaaaaaaaaaaaaaaaaaaaaaaaabbbbbbbbbbbbccccccccdddddddeeeeeefffffggggghhhhiiiijjjjkkkkllllmmmmnnnoooopppqqqrrrrssstttuuuvvvwwwxxxyyyzzz+..+
(PID.TID 0000.0001) //    146 +..+zzzyyyxxxwwwvvvuuutttsssrrrrqqqpppoooonnnmmmmlllkkkkjjjjiiiihhhhhgggggfffffeeeeeeddddddccccccccbbbbbbbbbbbaaaaaaaaaaaaaaaaaaaaaaaaaaaaaaaabbbbbbbbbbbccccccccddddddeeeeeefffffggggghhhhhiiiijjjjkkkklllmmmmnnnoooopppqqqrrrrssstttuuuvvvwwwxxxyyyzzz+..+
(PID.TID 0000.0001) //    145 +..+zzzyyyxxxwwwvvvuuutttsssrrrqqqqpppooonnnnmmmmlllkkkkjjjjiiiihhhhhggggfffffeeeeeedddddddcccccccbbbbbbbbbbbaaaaaaaaaaaaaaaaaaaaaaaaaaaaaaaaaabbbbbbbbbbbcccccccdddddddeeeeeefffffgggghhhhhiiiijjjjkkkklllmmmmnnnnooopppqqqqrrrssstttuuuvvvwwwxxxyyyzzz+..+
(PID.TID 0000.0001) //    144 +..+zzzyyyxxxwwwvvvuuutttsssrrrqqqqpppooonnnnmmmllllkkkkjjjjiiiihhhhgggggfffffeeeeeeddddddccccccccbbbbbbbbbbaaaaaaaaaaaaaaaaaaaaaaaaaaaaaaaaaaaabbbbbbbbbbccccccccddddddeeeeeefffffggggghhhhiiiijjjjkkkkllllmmmnnnnooopppqqqqrrrssstttuuuvvvwwwxxxyyyzzz+..+
(PID.TID 0000.0001) //    143 +..+zzzyyyxxxwwwvvvuuutttsssrrrqqqppppooonnnnmmmllllkkkkjjjjiiiihhhhgggggfffffeeeeeddddddccccccccbbbbbbbbbbaaaaaaaaaaaaaaaaaaaaaaaaaaaaaaaaaaaaaabbbbbbbbbbccccccccddddddeeeeefffffggggghhhhiiiijjjjkkkkllllmmmnnnnoooppppqqqrrrssstttuuuvvvwwwxxxyyyzzz+..+
(PID.TID 0000.0001) //    142 +..+zzzyyyxxxwwwvvvuuutttsssrrrqqqppppooonnnmmmmllllkkkjjjjiiiihhhhhggggfffffeeeeeeddddddcccccccbbbbbbbbbbaaaaaaaaaaaaaaaaaaaaaaaaaaaaaaaaaaaaaaaabbbbbbbbbbcccccccddddddeeeeeefffffgggghhhhhiiiijjjjkkkllllmmmmnnnoooppppqqqrrrssstttuuuvvvwwwxxxyyyzzz+..+
(PID.TID 0000.0001) //    141 +..+zzzyyyxxxwwwvvvuuutttsssrrrqqqppppooonnnmmmmllllkkkjjjjiiiihhhhhggggfffffeeeeedddddddcccccccbbbbbbbbbaaaaaaaaaaaaaaaaaaaaaaaaaaaaaaaaaaaaaaaaaabbbbbbbbbcccccccdddddddeeeeefffffgggghhhhhiiiijjjjkkkllllmmmmnnnoooppppqqqrrrssstttuuuvvvwwwxxxyyyzzz+..+
(PID.TID 0000.0001) //    140 +..+zzzyyxxxwwwwvvvuuutttsssrrrqqqpppoooonnnmmmmlllkkkkjjjjiiiihhhhgggggfffffeeeeeddddddcccccccbbbbbbbbbaaaaaaaaaaaaaaaaaaaaaaaaaaaaaaaaaaaaaaaaaaaabbbbbbbbbcccccccddddddeeeeefffffggggghhhhiiiijjjjkkkklllmmmmnnnoooopppqqqrrrssstttuuuvvvwwwwxxxyyzzz+..+
(PID.TID 0000.0001) //    139 +..+zzyyyxxxwwwvvvuuuutttsssrrrqqqpppoooonnnmmmmlllkkkkjjjjiiiihhhhgggggfffffeeeeeddddddcccccccbbbbbbbbbaaaaaaaaaaaaaaaaa----------aaaaaaaaaaaaaaaaabbbbbbbbbcccccccddddddeeeeefffffggggghhhhiiiijjjjkkkklllmmmmnnnoooopppqqqrrrssstttuuuuvvvwwwxxxyyyzz+..+
(PID.TID 0000.0001) //    138 +..+zzyyyxxxwwwvvvuuuutttsssrrrqqqpppoooonnnmmmmlllkkkkjjjjiiiihhhhggggfffffeeeeeedddddcccccccbbbbbbbbbaaaaaaaaaaaaaaaa--------------aaaaaaaaaaaaaaaabbbbbbbbbcccccccdddddeeeeeefffffgggghhhhiiiijjjjkkkklllmmmmnnnoooopppqqqrrrssstttuuuuvvvwwwxxxyyyzz+..+
(PID.TID 0000.0001) //    137 +..+zzyyyxxxwwwvvvuuuttttsssrrrqqqpppoooonnnmmmllllkkkkjjjjiiiihhhhggggfffffeeeeeddddddcccccccbbbbbbbbbaaaaaaaaaaaaaa------------------aaaaaaaaaaaaaabbbbbbbbbcccccccddddddeeeeefffffgggghhhhiiiijjjjkkkkllllmmmnnnoooopppqqqrrrsssttttuuuvvvwwwxxxyyyzz+..+
(PID.TID 0000.0001) //    136 +..+zzyyyxxxwwwvvvuuutttssssrrrqqqpppooonnnnmmmllllkkkkjjjiiiihhhhhggggfffffeeeeeddddddcccccccbbbbbbbbaaaaaaaaaaaaaa--------------------aaaaaaaaaaaaaabbbbbbbbcccccccddddddeeeeefffffgggghhhhhiiiijjjkkkkllllmmmnnnnooopppqqqrrrsssstttuuuvvvwwwxxxyyyzz+..+
(PID.TID 0000.0001) //    135 +..+zzyyyxxxwwwvvvuuutttssssrrrqqqpppooonnnnmmmllllkkkjjjjiiiihhhhgggggfffffeeeeeddddddccccccbbbbbbbbbaaaaaaaaaaaaa----------------------aaaaaaaaaaaaabbbbbbbbbccccccddddddeeeeefffffggggghhhhiiiijjjjkkkllllmmmnnnnooopppqqqrrrsssstttuuuvvvwwwxxxyyyzz+..+
(PID.TID 0000.0001) //    134 +..+zzyyyxxxwwwvvvuuutttsssrrrrqqqpppooonnnnmmmllllkkkjjjjiiiihhhhgggggffffeeeeeedddddcccccccbbbbbbbbaaaaaaaaaaaaa------------------------aaaaaaaaaaaaabbbbbbbbcccccccdddddeeeeeeffffggggghhhhiiiijjjjkkkllllmmmnnnnooopppqqqrrrrssstttuuuvvvwwwxxxyyyzz+..+
(PID.TID 0000.0001) //    133 z..zzzyyyxxxwwwvvvuuutttsssrrrrqqqpppooonnnnmmmllllkkkjjjjiiiihhhhgggggffffeeeeeddddddcccccccbbbbbbbbaaaaaaaaaaaa--------------------------aaaaaaaaaaaabbbbbbbbcccccccddddddeeeeeffffggggghhhhiiiijjjjkkkllllmmmnnnnooopppqqqrrrrssstttuuuvvvwwwxxxyyyzzz..z
(PID.TID 0000.0001) //    132 z..zzzyyyxxxwwwvvvuuutttsssrrrrqqqpppooonnnnmmmllllkkkjjjjiiiihhhhggggfffffeeeeeddddddcccccccbbbbbbbbaaaaaaaaaaaa--------------------------aaaaaaaaaaaabbbbbbbbcccccccddddddeeeeefffffgggghhhhiiiijjjjkkkllllmmmnnnnooopppqqqrrrrssstttuuuvvvwwwxxxyyyzzz..z
(PID.TID 0000.0001) //    131 z..zzzyyyxxxwwwvvvuuutttsssrrrrqqqpppooonnnnmmmlllkkkkjjjjiiiihhhhggggfffffeeeeeddddddccccccbbbbbbbbaaaaaaaaaaaa----------------------------aaaaaaaaaaaabbbbbbbbccccccddddddeeeeefffffgggghhhhiiiijjjjkkkklllmmmnnnnooopppqqqrrrrssstttuuuvvvwwwxxxyyyzzz..z
(PID.TID 0000.0001) //    130 z..zzzyyyxxxwwwvvvuuutttsssrrrqqqqpppooonnnmmmmlllkkkkjjjjiiiihhhhggggfffffeeeeeddddddccccccbbbbbbbbaaaaaaaaaaaa----------------------------aaaaaaaaaaaabbbbbbbbccccccddddddeeeeefffffgggghhhhiiiijjjjkkkklllmmmmnnnooopppqqqqrrrssstttuuuvvvwwwxxxyyyzzz..z
(PID.TID 0000.0001) //    129 z..zzzyyyxxxwwwvvvuuutttsssrrrqqqqpppooonnnmmmmlllkkkkjjjjiiiihhhhggggfffffeeeeeddddddccccccbbbbbbbbaaaaaaaaaaa------------------------------aaaaaaaaaaabbbbbbbbccccccddddddeeeeefffffgggghhhhiiiijjjjkkkklllmmmmnnnooopppqqqqrrrssstttuuuvvvwwwxxxyyyzzz..z
(PID.TID 0000.0001) //    128 z..zzzyyyxxxwwwvvvuuutttsssrrrqqqqpppooonnnmmmmlllkkkkjjjjiiiihhhhggggfffffeeeeedddddcccccccbbbbbbbbaaaaaaaaaaa------------------------------aaaaaaaaaaabbbbbbbbcccccccdddddeeeeefffffgggghhhhiiiijjjjkkkklllmmmmnnnooopppqqqqrrrssstttuuuvvvwwwxxxyyyzzz..z
(PID.TID 0000.0001) //    127 z..zzzyyyxxxwwwvvvuuutttsssrrrqqqqpppooonnnmmmmlllkkkkjjjjiiiihhhhggggfffffeeeeedddddcccccccbbbbbbbbaaaaaaaaaaa------------------------------aaaaaaaaaaabbbbbbbbcccccccdddddeeeeefffffgggghhhhiiiijjjjkkkklllmmmmnnnooopppqqqqrrrssstttuuuvvvwwwxxxyyyzzz..z
(PID.TID 0000.0001) //    126 z..zzzyyyxxxwwwvvvuuutttsssrrrqqqqpppooonnnmmmmlllkkkkjjjjiiiihhhhggggfffffeeeeedddddcccccccbbbbbbbbaaaaaaaaaaa------------------------------aaaaaaaaaaabbbbbbbbcccccccdddddeeeeefffffgggghhhhiiiijjjjkkkklllmmmmnnnooopppqqqqrrrssstttuuuvvvwwwxxxyyyzzz..z
(PID.TID 0000.0001) //    125 z..zzzyyyxxxwwwvvvuuutttsssrrrqqqqpppooonnnmmmmlllkkkkjjjjiiiihhhhggggfffffeeeeedddddcccccccbbbbbbbbaaaaaaaaaaa------------------------------aaaaaaaaaaabbbbbbbbcccccccdddddeeeeefffffgggghhhhiiiijjjjkkkklllmmmmnnnooopppqqqqrrrssstttuuuvvvwwwxxxyyyzzz..z
(PID.TID 0000.0001) //    124 z..zzzyyyxxxwwwvvvuuutttsssrrrqqqqpppooonnnmmmmlllkkkkjjjjiiiihhhhggggfffffeeeeedddddcccccccbbbbbbbbaaaaaaaaaaa------------------------------aaaaaaaaaaabbbbbbbbcccccccdddddeeeeefffffgggghhhhiiiijjjjkkkklllmmmmnnnooopppqqqqrrrssstttuuuvvvwwwxxxyyyzzz..z
(PID.TID 0000.0001) //    123 z..zzzyyyxxxwwwvvvuuutttsssrrrqqqqpppooonnnmmmmlllkkkkjjjjiiiihhhhggggfffffeeeeedddddcccccccbbbbbbbbaaaaaaaaaaa------------------------------aaaaaaaaaaabbbbbbbbcccccccdddddeeeeefffffgggghhhhiiiijjjjkkkklllmmmmnnnooopppqqqqrrrssstttuuuvvvwwwxxxyyyzzz..z
(PID.TID 0000.0001) //    122 z..zzzyyyxxxwwwvvvuuutttsssrrrqqqqpppooonnnmmmmlllkkkkjjjjiiiihhhhggggfffffeeeeedddddcccccccbbbbbbbbaaaaaaaaaaa------------------------------aaaaaaaaaaabbbbbbbbcccccccdddddeeeeefffffgggghhhhiiiijjjjkkkklllmmmmnnnooopppqqqqrrrssstttuuuvvvwwwxxxyyyzzz..z
(PID.TID 0000.0001) //    121 z..zzzyyyxxxwwwvvvuuutttsssrrrqqqqpppooonnnmmmmlllkkkkjjjjiiiihhhhggggfffffeeeeedddddcccccccbbbbbbbbaaaaaaaaaaa------------------------------aaaaaaaaaaabbbbbbbbcccccccdddddeeeeefffffgggghhhhiiiijjjjkkkklllmmmmnnnooopppqqqqrrrssstttuuuvvvwwwxxxyyyzzz..z
(PID.TID 0000.0001) //    120 z..zzzyyyxxxwwwvvvuuutttsssrrrqqqqpppooonnnmmmmlllkkkkjjjjiiiihhhhggggfffffeeeeeddddddccccccbbbbbbbbaaaaaaaaaaa------------------------------aaaaaaaaaaabbbbbbbbccccccddddddeeeeefffffgggghhhhiiiijjjjkkkklllmmmmnnnooopppqqqqrrrssstttuuuvvvwwwxxxyyyzzz..z
(PID.TID 0000.0001) //    119 z..zzzyyyxxxwwwvvvuuutttsssrrrqqqqpppooonnnmmmmlllkkkkjjjjiiiihhhhggggfffffeeeeeddddddccccccbbbbbbbbaaaaaaaaaaaa----------------------------aaaaaaaaaaaabbbbbbbbccccccddddddeeeeefffffgggghhhhiiiijjjjkkkklllmmmmnnnooopppqqqqrrrssstttuuuvvvwwwxxxyyyzzz..z
(PID.TID 0000.0001) //    118 z..zzzyyyxxxwwwvvvuuutttsssrrrrqqqpppooonnnnmmmlllkkkkjjjjiiiihhhhggggfffffeeeeeddddddccccccbbbbbbbbaaaaaaaaaaaa----------------------------aaaaaaaaaaaabbbbbbbbccccccddddddeeeeefffffgggghhhhiiiijjjjkkkklllmmmnnnnooopppqqqrrrrssstttuuuvvvwwwxxxyyyzzz..z
(PID.TID 0000.0001) //    117 z..zzzyyyxxxwwwvvvuuutttsssrrrrqqqpppooonnnnmmmllllkkkjjjjiiiihhhhggggfffffeeeeeddddddcccccccbbbbbbbbaaaaaaaaaaaa--------------------------aaaaaaaaaaaabbbbbbbbcccccccddddddeeeeefffffgggghhhhiiiijjjjkkkllllmmmnnnnooopppqqqrrrrssstttuuuvvvwwwxxxyyyzzz..z
(PID.TID 0000.0001) //    116 z..zzzyyyxxxwwwvvvuuutttsssrrrrqqqpppooonnnnmmmllllkkkjjjjiiiihhhhgggggffffeeeeeddddddcccccccbbbbbbbbaaaaaaaaaaaa--------------------------aaaaaaaaaaaabbbbbbbbcccccccddddddeeeeeffffggggghhhhiiiijjjjkkkllllmmmnnnnooopppqqqrrrrssstttuuuvvvwwwxxxyyyzzz..z
(PID.TID 0000.0001) //    115 +..+zzyyyxxxwwwvvvuuutttsssrrrrqqqpppooonnnnmmmllllkkkjjjjiiiihhhhgggggffffeeeeeedddddcccccccbbbbbbbbaaaaaaaaaaaaa------------------------aaaaaaaaaaaaabbbbbbbbcccccccdddddeeeeeeffffggggghhhhiiiijjjjkkkllllmmmnnnnooopppqqqrrrrssstttuuuvvvwwwxxxyyyzz+..+
(PID.TID 0000.0001) //    114 +..+zzyyyxxxwwwvvvuuutttssssrrrqqqpppooonnnnmmmllllkkkjjjjiiiihhhhgggggfffffeeeeeddddddccccccbbbbbbbbbaaaaaaaaaaaaa----------------------aaaaaaaaaaaaabbbbbbbbbccccccddddddeeeeefffffggggghhhhiiiijjjjkkkllllmmmnnnnooopppqqqrrrsssstttuuuvvvwwwxxxyyyzz+..+
(PID.TID 0000.0001) //    113 +..+zzyyyxxxwwwvvvuuutttssssrrrqqqpppooonnnnmmmllllkkkkjjjiiiihhhhhggggfffffeeeeeddddddcccccccbbbbbbbbaaaaaaaaaaaaaa--------------------aaaaaaaaaaaaaabbbbbbbbcccccccddddddeeeeefffffgggghhhhhiiiijjjkkkkllllmmmnnnnooopppqqqrrrsssstttuuuvvvwwwxxxyyyzz+..+
(PID.TID 0000.0001) //    112 +..+zzyyyxxxwwwvvvuuuttttsssrrrqqqpppoooonnnmmmllllkkkkjjjjiiiihhhhggggfffffeeeeeddddddcccccccbbbbbbbbbaaaaaaaaaaaaaa------------------aaaaaaaaaaaaaabbbbbbbbbcccccccddddddeeeeefffffgggghhhhiiiijjjjkkkkllllmmmnnnoooopppqqqrrrsssttttuuuvvvwwwxxxyyyzz+..+
(PID.TID 0000.0001) //    111 +..+zzyyyxxxwwwvvvuuuutttsssrrrqqqpppoooonnnmmmmlllkkkkjjjjiiiihhhhggggfffffeeeeeedddddcccccccbbbbbbbbbaaaaaaaaaaaaaaaa--------------aaaaaaaaaaaaaaaabbbbbbbbbcccccccdddddeeeeeefffffgggghhhhiiiijjjjkkkklllmmmmnnnoooopppqqqrrrssstttuuuuvvvwwwxxxyyyzz+..+
(PID.TID 0000.0001) //    110 +..+zzyyyxxxwwwvvvuuuutttsssrrrqqqpppoooonnnmmmmlllkkkkjjjjiiiihhhhgggggfffffeeeeeddddddcccccccbbbbbbbbbaaaaaaaaaaaaaaaaa----------aaaaaaaaaaaaaaaaabbbbbbbbbcccccccddddddeeeeefffffggggghhhhiiiijjjjkkkklllmmmmnnnoooopppqqqrrrssstttuuuuvvvwwwxxxyyyzz+..+
(PID.TID 0000.0001) //    109 +..+zzzyyxxxwwwwvvvuuutttsssrrrqqqpppoooonnnmmmmlllkkkkjjjjiiiihhhhgggggfffffeeeeeddddddcccccccbbbbbbbbbaaaaaaaaaaaaaaaaaaaaaaaaaaaaaaaaaaaaaaaaaaaabbbbbbbbbcccccccddddddeeeeefffffggggghhhhiiiijjjjkkkklllmmmmnnnoooopppqqqrrrssstttuuuvvvwwwwxxxyyzzz+..+
(PID.TID 0000.0001) //    108 +..+zzzyyyxxxwwwvvvuuutttsssrrrqqqppppooonnnmmmmllllkkkjjjjiiiihhhhhggggfffffeeeeedddddddcccccccbbbbbbbbbaaaaaaaaaaaaaaaaaaaaaaaaaaaaaaaaaaaaaaaaaabbbbbbbbbcccccccdddddddeeeeefffffgggghhhhhiiiijjjjkkkllllmmmmnnnoooppppqqqrrrssstttuuuvvvwwwxxxyyyzzz+..+
(PID.TID 0000.0001) //    107 +..+zzzyyyxxxwwwvvvuuutttsssrrrqqqppppooonnnmmmmllllkkkjjjjiiiihhhhhggggfffffeeeeeeddddddcccccccbbbbbbbbbbaaaaaaaaaaaaaaaaaaaaaaaaaaaaaaaaaaaaaaaabbbbbbbbbbcccccccddddddeeeeeefffffgggghhhhhiiiijjjjkkkllllmmmmnnnoooppppqqqrrrssstttuuuvvvwwwxxxyyyzzz+..+
(PID.TID 0000.0001) //    106 +..+zzzyyyxxxwwwvvvuuutttsssrrrqqqppppooonnnnmmmllllkkkkjjjjiiiihhhhgggggfffffeeeeeddddddccccccccbbbbbbbbbbaaaaaaaaaaaaaaaaaaaaaaaaaaaaaaaaaaaaaabbbbbbbbbbccccccccddddddeeeeefffffggggghhhhiiiijjjjkkkkllllmmmnnnnoooppppqqqrrrssstttuuuvvvwwwxxxyyyzzz+..+
(PID.TID 0000.0001) //    105 +..+zzzyyyxxxwwwvvvuuutttsssrrrqqqqpppooonnnnmmmllllkkkkjjjjiiiihhhhgggggfffffeeeeeeddddddccccccccbbbbbbbbbbaaaaaaaaaaaaaaaaaaaaaaaaaaaaaaaaaaaabbbbbbbbbbccccccccddddddeeeeeefffffggggghhhhiiiijjjjkkkkllllmmmnnnnooopppqqqqrrrssstttuuuvvvwwwxxxyyyzzz+..+
(PID.TID 0000.0001) //    104 +..+zzzyyyxxxwwwvvvuuutttsssrrrqqqqpppooonnnnmmmmlllkkkkjjjjiiiihhhhhggggfffffeeeeeedddddddcccccccbbbbbbbbbbbaaaaaaaaaaaaaaaaaaaaaaaaaaaaaaaaaabbbbbbbbbbbcccccccdddddddeeeeeefffffgggghhhhhiiiijjjjkkkklllmmmmnnnnooopppqqqqrrrssstttuuuvvvwwwxxxyyyzzz+..+
(PID.TID 0000.0001) //    103 +..+zzzyyyxxxwwwvvvuuutttsssrrrrqqqpppoooonnnmmmmlllkkkkjjjjiiiihhhhhgggggfffffeeeeeeddddddccccccccbbbbbbbbbbbaaaaaaaaaaaaaaaaaaaaaaaaaaaaaaaabbbbbbbbbbbccccccccddddddeeeeeefffffggggghhhhhiiiijjjjkkkklllmmmmnnnoooopppqqqrrrrssstttuuuvvvwwwxxxyyyzzz+..+
(PID.TID 0000.0001) //    102 +..+zzzyyyxxxwwwvvvuuutttsssrrrrqqqpppoooonnnmmmmllllkkkkjjjjiiiihhhhgggggfffffeeeeeedddddddccccccccbbbbbbbbbbbbaaaaaaaaaaaaaaaaaaaaaaaaaaaabbbbbbbbbbbbccccccccdddddddeeeeeefffffggggghhhhiiiijjjjkkkkllllmmmmnnnoooopppqqqrrrrssstttuuuvvvwwwxxxyyyzzz+..+
(PID.TID 0000.0001) //    101 +..+zzzyyyxxxwwwvvvuuutttssssrrrqqqpppoooonnnmmmmllllkkkkjjjjiiiihhhhhggggffffffeeeeeeddddddcccccccccbbbbbbbbbbbbbaaaaaaaaaaaaaaaaaaaaaaaabbbbbbbbbbbbbcccccccccddddddeeeeeeffffffgggghhhhhiiiijjjjkkkkllllmmmmnnnoooopppqqqrrrsssstttuuuvvvwwwxxxyyyzzz+..+
(PID.TID 0000.0001) //    100 +..+zzzyyyxxxwwwvvvuuutttssssrrrqqqppppooonnnnmmmllllkkkkjjjjiiiihhhhhgggggfffffeeeeeedddddddcccccccccbbbbbbbbbbbbbbaaaaaaaaaaaaaaaaaaaabbbbbbbbbbbbbbcccccccccdddddddeeeeeefffffggggghhhhhiiiijjjjkkkkllllmmmnnnnoooppppqqqrrrsssstttuuuvvvwwwxxxyyyzzz+..+
(PID.TID 0000.0001) //     99 +..+zzzyyyxxxwwwvvvuuutttssssrrrqqqppppooonnnnmmmmlllkkkkjjjjiiiiihhhhgggggffffffeeeeeedddddddcccccccccbbbbbbbbbbbbbbbbaaaaaaaaaaaaaabbbbbbbbbbbbbbbbcccccccccdddddddeeeeeeffffffggggghhhhiiiiijjjjkkkklllmmmmnnnnoooppppqqqrrrsssstttuuuvvvwwwxxxyyyzzz+..+
(PID.TID 0000.0001) //     98 +..+zzzyyyxxxwwwvvvuuuttttsssrrrqqqqpppooonnnnmmmmllllkkkkjjjjiiiihhhhhgggggfffffeeeeeeddddddddcccccccccbbbbbbbbbbbbbbbbbbbbbbbbbbbbbbbbbbbbbbbbbbbbcccccccccddddddddeeeeeefffffggggghhhhhiiiijjjjkkkkllllmmmmnnnnooopppqqqqrrrsssttttuuuvvvwwwxxxyyyzzz+..+
(PID.TID 0000.0001) //     97 +..+zzzyyyxxxwwwvvvuuuttttsssrrrqqqqpppoooonnnmmmmllllkkkkjjjjiiiihhhhhgggggffffffeeeeeedddddddccccccccccbbbbbbbbbbbbbbbbbbbbbbbbbbbbbbbbbbbbbbbbbbccccccccccdddddddeeeeeeffffffggggghhhhhiiiijjjjkkkkllllmmmmnnnoooopppqqqqrrrsssttttuuuvvvwwwxxxyyyzzz+..+
(PID.TID 0000.0001) //     96 +..+zzzyyyxxxwwwvvvuuuutttsssrrrqqqqpppoooonnnnmmmllllkkkkjjjjiiiiihhhhhgggggfffffeeeeeeedddddddcccccccccccbbbbbbbbbbbbbbbbbbbbbbbbbbbbbbbbbbbbbbcccccccccccdddddddeeeeeeefffffggggghhhhhiiiiijjjjkkkkllllmmmnnnnoooopppqqqqrrrssstttuuuuvvvwwwxxxyyyzzz+..+
(PID.TID 0000.0001) //     95 +..+zzzyyyxxxwwwvvvuuuutttsssrrrrqqqppppooonnnnmmmmlllkkkkkjjjjiiiihhhhhgggggffffffeeeeeeedddddddcccccccccccbbbbbbbbbbbbbbbbbbbbbbbbbbbbbbbbbbbbcccccccccccdddddddeeeeeeeffffffggggghhhhhiiiijjjjkkkkklllmmmmnnnnoooppppqqqrrrrssstttuuuuvvvwwwxxxyyyzzz+..+
(PID.TID 0000.0001) //     94 +..+zzzyyyxxxwwwvvvvuuutttsssrrrrqqqppppooonnnnmmmmllllkkkkjjjjiiiiihhhhhgggggffffffeeeeeeddddddddccccccccccccbbbbbbbbbbbbbbbbbbbbbbbbbbbbbbbbccccccccccccddddddddeeeeeeffffffggggghhhhhiiiiijjjjkkkkllllmmmmnnnnoooppppqqqrrrrssstttuuuvvvvwwwxxxyyyzzz+..+
(PID.TID 0000.0001) //     93 +..+zzzyyyxxxwwwvvvvuuutttssssrrrqqqppppoooonnnmmmmllllkkkkjjjjjiiiihhhhhgggggffffffeeeeeeedddddddddccccccccccccbbbbbbbbbbbbbbbbbbbbbbbbbbbbccccccccccccdddddddddeeeeeeeffffffggggghhhhhiiiijjjjjkkkkllllmmmmnnnooooppppqqqrrrsssstttuuuvvvvwwwxxxyyyzzz+..+
(PID.TID 0000.0001) //     92 +..+zzzyyyxxxwwwvvvvuuutttssssrrrqqqqpppoooonnnnmmmllllkkkkkjjjjiiiiihhhhhgggggffffffeeeeeeedddddddddccccccccccccccbbbbbbbbbbbbbbbbbbbbbbccccccccccccccdddddddddeeeeeeeffffffggggghhhhhiiiiijjjjkkkkkllllmmmnnnnoooopppqqqqrrrsssstttuuuvvvvwwwxxxyyyzzz+..+
(PID.TID 0000.0001) //     91 +..+zzzyyyxxxwwwwvvvuuutttssssrrrqqqqpppoooonnnnmmmmllllkkkkjjjjiiiiihhhhhggggggffffffeeeeeeedddddddddcccccccccccccccccbbbbbbbbbbbbbbcccccccccccccccccdddddddddeeeeeeeffffffgggggghhhhhiiiiijjjjkkkkllllmmmmnnnnoooopppqqqqrrrsssstttuuuvvvwwwwxxxyyyzzz+..+
(PID.TID 0000.0001) //     90 +..+zzzyyyxxxwwwwvvvuuuttttsssrrrrqqqppppooonnnnmmmmllllkkkkjjjjjiiiiihhhhhgggggfffffffeeeeeeeddddddddddccccccccccccccccccccccccccccccccccccccccccccddddddddddeeeeeeefffffffggggghhhhhiiiiijjjjjkkkkllllmmmmnnnnoooppppqqqrrrrsssttttuuuvvvwwwwxxxyyyzzz+..+
(PID.TID 0000.0001) //     89 +..+zzzyyyxxxwwwwvvvuuuttttsssrrrrqqqppppoooonnnmmmmlllllkkkkjjjjiiiiihhhhhggggggfffffffeeeeeeedddddddddddccccccccccccccccccccccccccccccccccccccccdddddddddddeeeeeeefffffffgggggghhhhhiiiiijjjjkkkklllllmmmmnnnooooppppqqqrrrrsssttttuuuvvvwwwwxxxyyyzzz+..+
(PID.TID 0000.0001) //     88 +..+zzzyyyxxxxwwwvvvuuuutttsssrrrrqqqqpppoooonnnnmmmmllllkkkkjjjjjiiiiihhhhhggggggfffffffeeeeeeeeddddddddddccccccccccccccccccccccccccccccccccccccddddddddddeeeeeeeefffffffgggggghhhhhiiiiijjjjjkkkkllllmmmmnnnnoooopppqqqqrrrrssstttuuuuvvvwwwxxxxyyyzzz+..+
(PID.TID 0000.0001) //     87 +..+zzzyyyxxxxwwwvvvuuuutttssssrrrqqqqpppoooonnnnmmmmllllkkkkkjjjjiiiiihhhhhhggggggfffffffeeeeeeeeddddddddddddccccccccccccccccccccccccccccccccddddddddddddeeeeeeeefffffffgggggghhhhhhiiiiijjjjkkkkkllllmmmmnnnnoooopppqqqqrrrsssstttuuuuvvvwwwxxxxyyyzzz+..+
(PID.TID 0000.0001) //     86 +..+zzzyyyxxxxwwwvvvuuuutttssssrrrqqqqppppoooonnnnmmmmllllkkkkjjjjjiiiiihhhhhhggggggfffffffeeeeeeeedddddddddddddccccccccccccccccccccccccccccdddddddddddddeeeeeeeefffffffgggggghhhhhhiiiiijjjjjkkkkllllmmmmnnnnooooppppqqqqrrrsssstttuuuuvvvwwwxxxxyyyzzz+..+
(PID.TID 0000.0001) //     85 +..+zzzyyyxxxxwwwvvvvuuutttssssrrrrqqqppppoooonnnnmmmmllllkkkkkjjjjjiiiiihhhhhgggggggfffffffeeeeeeeeedddddddddddddddccccccccccccccccccccdddddddddddddddeeeeeeeeefffffffggggggghhhhhiiiiijjjjjkkkkkllllmmmmnnnnooooppppqqqrrrrsssstttuuuvvvvwwwxxxxyyyzzz+..+
(PID.TID 0000.0001) //     84 +..+zzzyyyxxxxwwwvvvvuuuttttsssrrrrqqqqpppoooonnnnmmmmlllllkkkkjjjjjiiiiihhhhhhgggggggfffffffeeeeeeeeeedddddddddddddddddddccccccccdddddddddddddddddddeeeeeeeeeefffffffggggggghhhhhhiiiiijjjjjkkkklllllmmmmnnnnoooopppqqqqrrrrsssttttuuuvvvvwwwxxxxyyyzzz+..+
(PID.TID 0000.0001) //     83 +..+zzzyyyxxxxwwwvvvvuuuttttsssrrrrqqqqppppoooonnnnmmmmllllkkkkkjjjjjiiiiihhhhhhgggggggfffffffeeeeeeeeeeeddddddddddddddddddddddddddddddddddddddddddeeeeeeeeeeefffffffggggggghhhhhhiiiiijjjjjkkkkkllllmmmmnnnnooooppppqqqqrrrrsssttttuuuvvvvwwwxxxxyyyzzz+..+
(PID.TID 0000.0001) //     82 +..+zzzyyyyxxxwwwvvvvuuuttttssssrrrqqqqppppoooonnnnmmmmlllllkkkkkjjjjjiiiiihhhhhhgggggggffffffffeeeeeeeeeeeddddddddddddddddddddddddddddddddddddddeeeeeeeeeeeffffffffggggggghhhhhhiiiiijjjjjkkkkklllllmmmmnnnnooooppppqqqqrrrssssttttuuuvvvvwwwxxxyyyyzzz+..+
(PID.TID 0000.0001) //     81 +..+zzzyyyyxxxwwwwvvvuuuutttssssrrrrqqqppppoooonnnnnmmmmllllkkkkkjjjjjiiiiiihhhhhhgggggggffffffffeeeeeeeeeeeeddddddddddddddddddddddddddddddddddeeeeeeeeeeeeffffffffggggggghhhhhhiiiiiijjjjjkkkkkllllmmmmnnnnnooooppppqqqrrrrsssstttuuuuvvvwwwwxxxyyyyzzz+..+
(PID.TID 0000.0001) //     80 +..+zzzyyyyxxxwwwwvvvuuuutttssssrrrrqqqqppppoooonnnnmmmmlllllkkkkkjjjjjiiiiiihhhhhhgggggggfffffffffeeeeeeeeeeeeeeddddddddddddddddddddddddddeeeeeeeeeeeeeefffffffffggggggghhhhhhiiiiiijjjjjkkkkklllllmmmmnnnnooooppppqqqqrrrrsssstttuuuuvvvwwwwxxxyyyyzzz+..+
(PID.TID 0000.0001) //     79 +..+zzzyyyyxxxwwwwvvvuuuuttttsssrrrrqqqqppppoooonnnnmmmmmlllllkkkkjjjjjjiiiiiihhhhhhgggggggffffffffffeeeeeeeeeeeeeeeeddddddddddddddddddeeeeeeeeeeeeeeeeffffffffffggggggghhhhhhiiiiiijjjjjjkkkklllllmmmmmnnnnooooppppqqqqrrrrsssttttuuuuvvvwwwwxxxyyyyzzz+..+
(PID.TID 0000.0001) //     78 +..+zzzyyyyxxxwwwwvvvvuuuttttssssrrrrqqqppppooooonnnnmmmmlllllkkkkkjjjjjjiiiiihhhhhhhggggggggffffffffffeeeeeeeeeeeeeeeeeeeeeeeeeeeeeeeeeeeeeeeeeeeeeeffffffffffgggggggghhhhhhhiiiiijjjjjjkkkkklllllmmmmnnnnoooooppppqqqrrrrssssttttuuuvvvvwwwwxxxyyyyzzz+..+
(PID.TID 0000.0001) //     77 +..+zzzyyyyxxxwwwwvvvvuuuttttssssrrrrqqqqppppoooonnnnmmmmmlllllkkkkkjjjjjiiiiiihhhhhhhggggggggfffffffffffeeeeeeeeeeeeeeeeeeeeeeeeeeeeeeeeeeeeeeeeeefffffffffffgggggggghhhhhhhiiiiiijjjjjkkkkklllllmmmmmnnnnooooppppqqqqrrrrssssttttuuuvvvvwwwwxxxyyyyzzz+..+
(PID.TID 0000.0001) //     76 +..+zzzyyyyxxxxwwwvvvvuuuutttssssrrrrqqqqppppooooonnnnmmmmmlllllkkkkkjjjjjiiiiiiihhhhhhhggggggggffffffffffffeeeeeeeeeeeeeeeeeeeeeeeeeeeeeeeeeeeeffffffffffffgggggggghhhhhhhiiiiiiijjjjjkkkkklllllmmmmmnnnnoooooppppqqqqrrrrsssstttuuuuvvvvwwwxxxxyyyyzzz+..+
(PID.TID 0000.0001) //     75 +..+zzzyyyyxxxxwwwvvvvuuuuttttssssrrrrqqqqppppoooonnnnnmmmmlllllkkkkkkjjjjjiiiiiiihhhhhhhgggggggggffffffffffffffeeeeeeeeeeeeeeeeeeeeeeeeeeeeffffffffffffffggggggggghhhhhhhiiiiiiijjjjjkkkkkklllllmmmmnnnnnooooppppqqqqrrrrssssttttuuuuvvvvwwwxxxxyyyyzzz+..+
(PID.TID 0000.0001) //     74 +..+zzzzyyyxxxxwwwwvvvuuuuttttssssrrrrqqqqppppooooonnnnmmmmmlllllkkkkkjjjjjjiiiiiiihhhhhhhggggggggggffffffffffffffffeeeeeeeeeeeeeeeeeeeeffffffffffffffffgggggggggghhhhhhhiiiiiiijjjjjjkkkkklllllmmmmmnnnnoooooppppqqqqrrrrssssttttuuuuvvvwwwwxxxxyyyzzzz+..+
(PID.TID 0000.0001) //     73 +..+zzzzyyyxxxxwwwwvvvuuuuttttssssrrrrqqqqpppppoooonnnnnmmmmmlllllkkkkkjjjjjjiiiiiiihhhhhhhhggggggggggffffffffffffffffffffffffffffffffffffffffffffffffgggggggggghhhhhhhhiiiiiiijjjjjjkkkkklllllmmmmmnnnnnoooopppppqqqqrrrrssssttttuuuuvvvwwwwxxxxyyyzzzz+..+
(PID.TID 0000.0001) //     72 +..+zzzzyyyxxxxwwwwvvvvuuuuttttssssrrrrqqqqppppooooonnnnmmmmmllllllkkkkkjjjjjjiiiiiiihhhhhhhhhgggggggggggffffffffffffffffffffffffffffffffffffffffffggggggggggghhhhhhhhhiiiiiiijjjjjjkkkkkllllllmmmmmnnnnoooooppppqqqqrrrrssssttttuuuuvvvvwwwwxxxxyyyzzzz+..+
(PID.TID 0000.0001) //     71 +..+zzzzyyyxxxxwwwwvvvvuuuuttttssssrrrrqqqqpppppoooonnnnnmmmmmlllllkkkkkkjjjjjjjiiiiiiihhhhhhhhhggggggggggggffffffffffffffffffffffffffffffffffffgggggggggggghhhhhhhhhiiiiiiijjjjjjjkkkkkklllllmmmmmnnnnnoooopppppqqqqrrrrssssttttuuuuvvvvwwwwxxxxyyyzzzz+..+
(PID.TID 0000.0001) //     70 +..+zzzzyyyyxxxwwwwvvvvuuuuttttssssrrrrqqqqqppppooooonnnnnmmmmmlllllkkkkkkjjjjjjjiiiiiiihhhhhhhhhhggggggggggggggffffffffffffffffffffffffffffgggggggggggggghhhhhhhhhhiiiiiiijjjjjjjkkkkkklllllmmmmmnnnnnoooooppppqqqqqrrrrssssttttuuuuvvvvwwwwxxxyyyyzzzz+..+
(PID.TID 0000.0001) //     69 +..+zzzzyyyyxxxxwwwvvvvuuuuttttsssssrrrrqqqqpppppooooonnnnmmmmmmlllllkkkkkkjjjjjjjiiiiiiiihhhhhhhhhhggggggggggggggggggffffffffffffffffgggggggggggggggggghhhhhhhhhhiiiiiiiijjjjjjjkkkkkklllllmmmmmmnnnnooooopppppqqqqrrrrsssssttttuuuuvvvvwwwxxxxyyyyzzzz+..+
(PID.TID 0000.0001) //     68 +..+zzzzyyyyxxxxwwwwvvvvuuuuttttssssrrrrqqqqqppppooooonnnnnmmmmmmlllllkkkkkkkjjjjjjjiiiiiiiihhhhhhhhhhhgggggggggggggggggggggggggggggggggggggggggggggghhhhhhhhhhhiiiiiiiijjjjjjjkkkkkkklllllmmmmmmnnnnnoooooppppqqqqqrrrrssssttttuuuuvvvvwwwwxxxxyyyyzzzz+..+
(PID.TID 0000.0001) //     67 +..+zzzzyyyyxxxxwwwwvvvvuuuuttttssssrrrrrqqqqpppppooooonnnnnmmmmmllllllkkkkkkkjjjjjjjiiiiiiiiihhhhhhhhhhhhgggggggggggggggggggggggggggggggggggggggghhhhhhhhhhhhiiiiiiiiijjjjjjjkkkkkkkllllllmmmmmnnnnnooooopppppqqqqrrrrrssssttttuuuuvvvvwwwwxxxxyyyyzzzz+..+
(PID.TID 0000.0001) //     66 +..+zzzzyyyyxxxxwwwwvvvvuuuutttttssssrrrrqqqqqpppppooooonnnnnmmmmmllllllkkkkkkkjjjjjjjjiiiiiiiiihhhhhhhhhhhhhhgggggggggggggggggggggggggggggggghhhhhhhhhhhhhhiiiiiiiiijjjjjjjjkkkkkkkllllllmmmmmnnnnnooooopppppqqqqqrrrrsssstttttuuuuvvvvwwwwxxxxyyyyzzzz+..+
(PID.TID 0000.0001) //     65 +..+zzzzyyyyxxxxwwwwvvvvuuuuuttttssssrrrrrqqqqpppppooooonnnnnnmmmmmlllllllkkkkkkjjjjjjjjiiiiiiiiiihhhhhhhhhhhhhhhhhgggggggggggggggggggggghhhhhhhhhhhhhhhhhiiiiiiiiiijjjjjjjjkkkkkklllllllmmmmmnnnnnnooooopppppqqqqrrrrrssssttttuuuuuvvvvwwwwxxxxyyyyzzzz+..+
(PID.TID 0000.0001) //     64 +..+zzzzyyyyxxxxwwwwvvvvvuuuuttttsssssrrrrqqqqqpppppooooonnnnnnmmmmmlllllllkkkkkkkjjjjjjjjiiiiiiiiiiihhhhhhhhhhhhhhhhhhhhhhhhhhhhhhhhhhhhhhhhhhhhhhhhhhiiiiiiiiiiijjjjjjjjkkkkkkklllllllmmmmmnnnnnnooooopppppqqqqqrrrrsssssttttuuuuvvvvvwwwwxxxxyyyyzzzz+..+
(PID.TID 0000.0001) //     63 +..+zzzzyyyyxxxxwwwwwvvvvuuuutttttssssrrrrrqqqqqpppppooooonnnnnnmmmmmmllllllkkkkkkkkjjjjjjjjiiiiiiiiiiiihhhhhhhhhhhhhhhhhhhhhhhhhhhhhhhhhhhhhhhhhhhhiiiiiiiiiiiijjjjjjjjkkkkkkkkllllllmmmmmmnnnnnnooooopppppqqqqqrrrrrsssstttttuuuuvvvvwwwwwxxxxyyyyzzzz+..+
(PID.TID 0000.0001) //     62 +..+zzzzyyyyxxxxxwwwwvvvvuuuuuttttsssssrrrrqqqqqpppppoooooonnnnnnmmmmmmlllllllkkkkkkkjjjjjjjjjjiiiiiiiiiiiiihhhhhhhhhhhhhhhhhhhhhhhhhhhhhhhhhhhhiiiiiiiiiiiiijjjjjjjjjjkkkkkkklllllllmmmmmmnnnnnnoooooopppppqqqqqrrrrsssssttttuuuuuvvvvwwwwxxxxxyyyyzzzz+..+
(PID.TID 0000.0001) //     61 +..+zzzzyyyyyxxxxwwwwvvvvvuuuutttttssssrrrrrqqqqqpppppoooooonnnnnnmmmmmmlllllllkkkkkkkkjjjjjjjjjjiiiiiiiiiiiiiiiiihhhhhhhhhhhhhhhhhhhhhhhhiiiiiiiiiiiiiiiiijjjjjjjjjjkkkkkkkklllllllmmmmmmnnnnnnoooooopppppqqqqqrrrrrsssstttttuuuuvvvvvwwwwxxxxyyyyyzzzz+..+
(PID.TID 0000.0001) //     60 +..+zzzzyyyyyxxxxwwwwvvvvvuuuutttttsssssrrrrrqqqqqpppppoooooonnnnnnmmmmmmllllllllkkkkkkkkjjjjjjjjjjjiiiiiiiiiiiiiiiiiiiiiiiiiiiiiiiiiiiiiiiiiiiiiiiiiiiijjjjjjjjjjjkkkkkkkkllllllllmmmmmmnnnnnnoooooopppppqqqqqrrrrrssssstttttuuuuvvvvvwwwwxxxxyyyyyzzzz+..+
(PID.TID 0000.0001) //     59 +..+zzzzzyyyyxxxxwwwwwvvvvuuuuutttttssssrrrrrqqqqqppppppoooooonnnnnnmmmmmmmlllllllkkkkkkkkkjjjjjjjjjjjjjiiiiiiiiiiiiiiiiiiiiiiiiiiiiiiiiiiiiiiiiiiiijjjjjjjjjjjjjkkkkkkkkklllllllmmmmmmmnnnnnnooooooppppppqqqqqrrrrrsssstttttuuuuuvvvvwwwwwxxxxyyyyzzzzz+..+
(PID.TID 0000.0001) //     58 +..+zzzzzyyyyxxxxxwwwwvvvvvuuuutttttsssssrrrrrqqqqqppppppoooooonnnnnnmmmmmmmllllllllkkkkkkkkkkjjjjjjjjjjjjjjiiiiiiiiiiiiiiiiiiiiiiiiiiiiiiiiiiiijjjjjjjjjjjjjjkkkkkkkkkkllllllllmmmmmmmnnnnnnooooooppppppqqqqqrrrrrssssstttttuuuuvvvvvwwwwxxxxxyyyyzzzzz+..+
(PID.TID 0000.0001) //     57 +..+zzzzzyyyyxxxxxwwwwvvvvvuuuuutttttsssssrrrrrqqqqqppppppoooooonnnnnnmmmmmmmmllllllllkkkkkkkkkkkjjjjjjjjjjjjjjjjjiiiiiiiiiiiiiiiiiiiiiiiijjjjjjjjjjjjjjjjjkkkkkkkkkkkllllllllmmmmmmmmnnnnnnooooooppppppqqqqqrrrrrssssstttttuuuuuvvvvvwwwwxxxxxyyyyzzzzz+..+
(PID.TID 0000.0001) //     56 +..+zzzzzyyyyxxxxxwwwwwvvvvuuuuutttttsssssrrrrrqqqqqqppppppoooooonnnnnnnmmmmmmmlllllllllkkkkkkkkkkkkjjjjjjjjjjjjjjjjjjjjjjjjjjjjjjjjjjjjjjjjjjjjjjjjjjjjkkkkkkkkkkkklllllllllmmmmmmmnnnnnnnooooooppppppqqqqqqrrrrrssssstttttuuuuuvvvvwwwwwxxxxxyyyyzzzzz+..+
(PID.TID 0000.0001) //     55 +..+zzzzzyyyyyxxxxwwwwwvvvvvuuuuutttttsssssrrrrrqqqqqqppppppoooooonnnnnnnmmmmmmmmllllllllllkkkkkkkkkkkkkjjjjjjjjjjjjjjjjjjjjjjjjjjjjjjjjjjjjjjjjjjjjkkkkkkkkkkkkkllllllllllmmmmmmmmnnnnnnnooooooppppppqqqqqqrrrrrssssstttttuuuuuvvvvvwwwwwxxxxyyyyyzzzzz+..+
(PID.TID 0000.0001) //     54 +..+zzzzzyyyyyxxxxwwwwwvvvvvuuuuutttttssssssrrrrrqqqqqqppppppooooooonnnnnnnmmmmmmmmllllllllllkkkkkkkkkkkkkkkjjjjjjjjjjjjjjjjjjjjjjjjjjjjjjjjjjjjkkkkkkkkkkkkkkkllllllllllmmmmmmmmnnnnnnnoooooooppppppqqqqqqrrrrrsssssstttttuuuuuvvvvvwwwwwxxxxyyyyyzzzzz+..+
(PID.TID 0000.0001) //     53 +..+zzzzzyyyyyxxxxxwwwwwvvvvvuuuuutttttsssssrrrrrrqqqqqqppppppooooooonnnnnnnnmmmmmmmmlllllllllllkkkkkkkkkkkkkkkkkkkjjjjjjjjjjjjjjjjjjjjjjkkkkkkkkkkkkkkkkkkklllllllllllmmmmmmmmnnnnnnnnoooooooppppppqqqqqqrrrrrrssssstttttuuuuuvvvvvwwwwwxxxxxyyyyyzzzzz+..+
(PID.TID 0000.0001) //     52 +..+zzzzzyyyyyxxxxxwwwwwvvvvvuuuuuttttttsssssrrrrrrqqqqqqppppppoooooooonnnnnnnmmmmmmmmmmllllllllllllkkkkkkkkkkkkkkkkkkkkkkkkkkkkkkkkkkkkkkkkkkkkkkkkkkkkllllllllllllmmmmmmmmmmnnnnnnnooooooooppppppqqqqqqrrrrrrsssssttttttuuuuuvvvvvwwwwwxxxxxyyyyyzzzzz+..+
(PID.TID 0000.0001) //     51 +..+zzzzzyyyyyxxxxxwwwwwvvvvvvuuuuutttttssssssrrrrrrqqqqqqpppppppooooooonnnnnnnnmmmmmmmmmmllllllllllllllkkkkkkkkkkkkkkkkkkkkkkkkkkkkkkkkkkkkkkkkkkkkllllllllllllllmmmmmmmmmmnnnnnnnnooooooopppppppqqqqqqrrrrrrsssssstttttuuuuuvvvvvvwwwwwxxxxxyyyyyzzzzz+..+
(PID.TID 0000.0001) //     50 +..++zzzzzyyyyyxxxxxwwwwwvvvvvuuuuuttttttssssssrrrrrrqqqqqqpppppppoooooooonnnnnnnnnmmmmmmmmmmlllllllllllllllllkkkkkkkkkkkkkkkkkkkkkkkkkkkkkkkklllllllllllllllllmmmmmmmmmmnnnnnnnnnoooooooopppppppqqqqqqrrrrrrssssssttttttuuuuuvvvvvwwwwwxxxxxyyyyyzzzzz++..+
(PID.TID 0000.0001) //     49 +..++zzzzzyyyyyxxxxxwwwwwvvvvvvuuuuuttttttssssssrrrrrrqqqqqqppppppppoooooooonnnnnnnnnmmmmmmmmmmmmllllllllllllllllllllllkkkkkkkkkkkkkkllllllllllllllllllllllmmmmmmmmmmmmnnnnnnnnnooooooooppppppppqqqqqqrrrrrrssssssttttttuuuuuvvvvvvwwwwwxxxxxyyyyyzzzzz++..+
(PID.TID 0000.0001) //     48 +..++zzzzzyyyyyxxxxxwwwwwwvvvvvuuuuuuttttttssssssrrrrrrqqqqqqqpppppppooooooooonnnnnnnnnnmmmmmmmmmmmmmllllllllllllllllllllllllllllllllllllllllllllllllllmmmmmmmmmmmmmnnnnnnnnnnooooooooopppppppqqqqqqqrrrrrrssssssttttttuuuuuuvvvvvwwwwwwxxxxxyyyyyzzzzz++..+
(PID.TID 0000.0001) //     47 +..++zzzzzyyyyyxxxxxxwwwwwvvvvvvuuuuuttttttsssssssrrrrrrqqqqqqqppppppppooooooooonnnnnnnnnnmmmmmmmmmmmmmmmmllllllllllllllllllllllllllllllllllllllllmmmmmmmmmmmmmmmmnnnnnnnnnnoooooooooppppppppqqqqqqqrrrrrrsssssssttttttuuuuuvvvvvvwwwwwxxxxxxyyyyyzzzzz++..+
(PID.TID 0000.0001) //     46 +..++zzzzzyyyyyyxxxxxwwwwwwvvvvvuuuuuuttttttsssssssrrrrrrqqqqqqqqppppppppooooooooonnnnnnnnnnnnmmmmmmmmmmmmmmmmmmmllllllllllllllllllllllllllmmmmmmmmmmmmmmmmmmmnnnnnnnnnnnnoooooooooppppppppqqqqqqqqrrrrrrsssssssttttttuuuuuuvvvvvwwwwwwxxxxxyyyyyyzzzzz++..+
(PID.TID 0000.0001) //     45 +..++zzzzzyyyyyyxxxxxwwwwwwvvvvvvuuuuuuttttttsssssssrrrrrrrqqqqqqqpppppppppoooooooooonnnnnnnnnnnnnmmmmmmmmmmmmmmmmmmmmmmmmmmmmmmmmmmmmmmmmmmmmmmmmmmmmmmmmnnnnnnnnnnnnnoooooooooopppppppppqqqqqqqrrrrrrrsssssssttttttuuuuuuvvvvvvwwwwwwxxxxxyyyyyyzzzzz++..+
(PID.TID 0000.0001) //     44 +..++zzzzzyyyyyyxxxxxxwwwwwwvvvvvvuuuuuuttttttsssssssrrrrrrrqqqqqqqqpppppppppooooooooooonnnnnnnnnnnnnnmmmmmmmmmmmmmmmmmmmmmmmmmmmmmmmmmmmmmmmmmmmmmmmmnnnnnnnnnnnnnnooooooooooopppppppppqqqqqqqqrrrrrrrsssssssttttttuuuuuuvvvvvvwwwwwwxxxxxxyyyyyyzzzzz++..+
(PID.TID 0000.0001) //     43 +..++zzzzzzyyyyyxxxxxxwwwwwwvvvvvvuuuuuuuttttttsssssssrrrrrrrrqqqqqqqqpppppppppoooooooooooonnnnnnnnnnnnnnnnnmmmmmmmmmmmmmmmmmmmmmmmmmmmmmmmmmmmmnnnnnnnnnnnnnnnnnoooooooooooopppppppppqqqqqqqqrrrrrrrrsssssssttttttuuuuuuuvvvvvvwwwwwwxxxxxxyyyyyzzzzzz++..+
(PID.TID 0000.0001) //     42 +..++zzzzzzyyyyyyxxxxxxwwwwwwvvvvvvuuuuuuuttttttssssssssrrrrrrrqqqqqqqqqppppppppppooooooooooooonnnnnnnnnnnnnnnnnnnnnnnnnmmmmmmmmmmmmnnnnnnnnnnnnnnnnnnnnnnnnnoooooooooooooppppppppppqqqqqqqqqrrrrrrrssssssssttttttuuuuuuuvvvvvvwwwwwwxxxxxxyyyyyyzzzzzz++..+
(PID.TID 0000.0001) //     41 +..++zzzzzzyyyyyyxxxxxxwwwwwwvvvvvvvuuuuuuutttttttsssssssrrrrrrrrqqqqqqqqqpppppppppppoooooooooooooonnnnnnnnnnnnnnnnnnnnnnnnnnnnnnnnnnnnnnnnnnnnnnnnnnnnnnoooooooooooooopppppppppppqqqqqqqqqrrrrrrrrssssssstttttttuuuuuuuvvvvvvvwwwwwwxxxxxxyyyyyyzzzzzz++..+
(PID.TID 0000.0001) //     40 +..++zzzzzzyyyyyyxxxxxxxwwwwwwvvvvvvvuuuuuuutttttttssssssssrrrrrrrrqqqqqqqqqqpppppppppppooooooooooooooooonnnnnnnnnnnnnnnnnnnnnnnnnnnnnnnnnnnnnnnnnnooooooooooooooooopppppppppppqqqqqqqqqqrrrrrrrrsssssssstttttttuuuuuuuvvvvvvvwwwwwwxxxxxxxyyyyyyzzzzzz++..+
(PID.TID 0000.0001) //     39 +..++zzzzzzyyyyyyyxxxxxxwwwwwwwvvvvvvvuuuuuuutttttttssssssssrrrrrrrrrqqqqqqqqqqpppppppppppppoooooooooooooooooooooonnnnnnnnnnnnnnnnnnnnnnnnoooooooooooooooooooooopppppppppppppqqqqqqqqqqrrrrrrrrrsssssssstttttttuuuuuuuvvvvvvvwwwwwwwxxxxxxyyyyyyyzzzzzz++..+
(PID.TID 0000.0001) //     38 +..++zzzzzzzyyyyyyxxxxxxxwwwwwwvvvvvvvuuuuuuuuttttttttssssssssrrrrrrrrrqqqqqqqqqqqpppppppppppppppoooooooooooooooooooooooooooooooooooooooooooooooooooooooooopppppppppppppppqqqqqqqqqqqrrrrrrrrrssssssssttttttttuuuuuuuuvvvvvvvwwwwwwxxxxxxxyyyyyyzzzzzzz++..+
(PID.TID 0000.0001) //     37 +..++zzzzzzzyyyyyyyxxxxxxwwwwwwwvvvvvvvuuuuuuuuttttttttsssssssssrrrrrrrrrrqqqqqqqqqqqqppppppppppppppppooooooooooooooooooooooooooooooooooooooooooooooooppppppppppppppppqqqqqqqqqqqqrrrrrrrrrrsssssssssttttttttuuuuuuuuvvvvvvvwwwwwwwxxxxxxyyyyyyyzzzzzzz++..+
(PID.TID 0000.0001) //     36 +..++zzzzzzzyyyyyyyxxxxxxxwwwwwwwvvvvvvvvuuuuuuutttttttttsssssssssrrrrrrrrrrrqqqqqqqqqqqqqppppppppppppppppppppooooooooooooooooooooooooooooooooppppppppppppppppppppqqqqqqqqqqqqqrrrrrrrrrrrssssssssstttttttttuuuuuuuvvvvvvvvwwwwwwwxxxxxxxyyyyyyyzzzzzzz++..+
(PID.TID 0000.0001) //     35 +..+++zzzzzzyyyyyyyxxxxxxxxwwwwwwwvvvvvvvvuuuuuuuutttttttttsssssssssrrrrrrrrrrrrqqqqqqqqqqqqqqppppppppppppppppppppppppppppppppppppppppppppppppppppppppppppppppqqqqqqqqqqqqqqrrrrrrrrrrrrssssssssstttttttttuuuuuuuuvvvvvvvvwwwwwwwxxxxxxxxyyyyyyyzzzzzz+++..+
(PID.TID 0000.0001) //     34 +..+++zzzzzzzyyyyyyyxxxxxxxwwwwwwwwvvvvvvvvuuuuuuuuttttttttttssssssssssrrrrrrrrrrrrqqqqqqqqqqqqqqqqqppppppppppppppppppppppppppppppppppppppppppppppppppppqqqqqqqqqqqqqqqqqrrrrrrrrrrrrssssssssssttttttttttuuuuuuuuvvvvvvvvwwwwwwwwxxxxxxxyyyyyyyzzzzzzz+++..+
(PID.TID 0000.0001) //     33 +..+++zzzzzzzyyyyyyyxxxxxxxxwwwwwwwwvvvvvvvvuuuuuuuuuttttttttttsssssssssssrrrrrrrrrrrrrqqqqqqqqqqqqqqqqqqqqppppppppppppppppppppppppppppppppppppppqqqqqqqqqqqqqqqqqqqqrrrrrrrrrrrrrsssssssssssttttttttttuuuuuuuuuvvvvvvvvwwwwwwwwxxxxxxxxyyyyyyyzzzzzzz+++..+
(PID.TID 0000.0001) //     32 +..+++zzzzzzzyyyyyyyyxxxxxxxxwwwwwwwwvvvvvvvvvuuuuuuuuuttttttttttssssssssssssrrrrrrrrrrrrrrrqqqqqqqqqqqqqqqqqqqqqqqqqqqqqqqqqqqqqqqqqqqqqqqqqqqqqqqqqqqqqqqqqqqqrrrrrrrrrrrrrrrssssssssssssttttttttttuuuuuuuuuvvvvvvvvvwwwwwwwwxxxxxxxxyyyyyyyyzzzzzzz+++..+
(PID.TID 0000.0001) //     31 +..+++zzzzzzzzyyyyyyyyxxxxxxxxwwwwwwwwvvvvvvvvvuuuuuuuuuutttttttttttssssssssssssrrrrrrrrrrrrrrrrrqqqqqqqqqqqqqqqqqqqqqqqqqqqqqqqqqqqqqqqqqqqqqqqqqqqqqqqqqqrrrrrrrrrrrrrrrrrsssssssssssstttttttttttuuuuuuuuuuvvvvvvvvvwwwwwwwwxxxxxxxxyyyyyyyyzzzzzzzz+++..+
(PID.TID 0000.0001) //     30 +..+++zzzzzzzzyyyyyyyyxxxxxxxxxwwwwwwwwvvvvvvvvvvuuuuuuuuuutttttttttttssssssssssssssrrrrrrrrrrrrrrrrrrrrrqqqqqqqqqqqqqqqqqqqqqqqqqqqqqqqqqqqqqqqqqqrrrrrrrrrrrrrrrrrrrrrsssssssssssssstttttttttttuuuuuuuuuuvvvvvvvvvvwwwwwwwwxxxxxxxxxyyyyyyyyzzzzzzzz+++..+
(PID.TID 0000.0001) //     29 +..+++zzzzzzzzzyyyyyyyyxxxxxxxxxwwwwwwwwwvvvvvvvvvvuuuuuuuuuutttttttttttttsssssssssssssssrrrrrrrrrrrrrrrrrrrrrrrrrrrrrrrqqqqqqqqqqqqrrrrrrrrrrrrrrrrrrrrrrrrrrrrrrrssssssssssssssstttttttttttttuuuuuuuuuuvvvvvvvvvvwwwwwwwwwxxxxxxxxxyyyyyyyyzzzzzzzzz+++..+
(PID.TID 0000.0001) //     28 +..+++zzzzzzzzzyyyyyyyyyxxxxxxxxxwwwwwwwwwvvvvvvvvvvvuuuuuuuuuuutttttttttttttssssssssssssssssssrrrrrrrrrrrrrrrrrrrrrrrrrrrrrrrrrrrrrrrrrrrrrrrrrrrrrrrrrrrrrrsssssssssssssssssstttttttttttttuuuuuuuuuuuvvvvvvvvvvvwwwwwwwwwxxxxxxxxxyyyyyyyyyzzzzzzzzz+++..+
(PID.TID 0000.0001) //     27 +..++++zzzzzzzzyyyyyyyyyyxxxxxxxxxwwwwwwwwwwvvvvvvvvvvvuuuuuuuuuuuuttttttttttttttssssssssssssssssssssssrrrrrrrrrrrrrrrrrrrrrrrrrrrrrrrrrrrrrrrrrrrrrrssssssssssssssssssssssttttttttttttttuuuuuuuuuuuuvvvvvvvvvvvwwwwwwwwwwxxxxxxxxxyyyyyyyyyyzzzzzzzz++++..+
(PID.TID 0000.0001) //     26 +..++++zzzzzzzzzyyyyyyyyyxxxxxxxxxxwwwwwwwwwwwvvvvvvvvvvvuuuuuuuuuuuuuttttttttttttttttssssssssssssssssssssssssssssssrrrrrrrrrrrrrrrrrrrrssssssssssssssssssssssssssssssttttttttttttttttuuuuuuuuuuuuuvvvvvvvvvvvwwwwwwwwwwwxxxxxxxxxxyyyyyyyyyzzzzzzzzz++++..+
(PID.TID 0000.0001) //     25 +..++++zzzzzzzzzzyyyyyyyyyxxxxxxxxxxxwwwwwwwwwwwvvvvvvvvvvvvuuuuuuuuuuuuuuttttttttttttttttttssssssssssssssssssssssssssssssssssssssssssssssssssssssssssssssssssssttttttttttttttttttuuuuuuuuuuuuuuvvvvvvvvvvvvwwwwwwwwwwwxxxxxxxxxxxyyyyyyyyyzzzzzzzzzz++++..+
(PID.TID 0000.0001) //     24 +..++++zzzzzzzzzzyyyyyyyyyyxxxxxxxxxxxwwwwwwwwwwwwvvvvvvvvvvvvvuuuuuuuuuuuuuuuttttttttttttttttttttttssssssssssssssssssssssssssssssssssssssssssssssssssssttttttttttttttttttttttuuuuuuuuuuuuuuuvvvvvvvvvvvvvwwwwwwwwwwwwxxxxxxxxxxxyyyyyyyyyyzzzzzzzzzz++++..+
(PID.TID 0000.0001) //     23 +..++++zzzzzzzzzzzyyyyyyyyyyyxxxxxxxxxxxwwwwwwwwwwwwvvvvvvvvvvvvvvuuuuuuuuuuuuuuuuutttttttttttttttttttttttttttttttsssssssssssssssssssssssstttttttttttttttttttttttttttttttuuuuuuuuuuuuuuuuuvvvvvvvvvvvvvvwwwwwwwwwwwwxxxxxxxxxxxyyyyyyyyyyyzzzzzzzzzzz++++..+
(PID.TID 0000.0001) //     22 +..+++++zzzzzzzzzzzyyyyyyyyyyyxxxxxxxxxxxxwwwwwwwwwwwwwvvvvvvvvvvvvvvvuuuuuuuuuuuuuuuuuuuuttttttttttttttttttttttttttttttttttttttttttttttttttttttttttttttttttttttttuuuuuuuuuuuuuuuuuuuuvvvvvvvvvvvvvvvwwwwwwwwwwwwwxxxxxxxxxxxxyyyyyyyyyyyzzzzzzzzzzz+++++..+
(PID.TID 0000.0001) //     21 +..+++++zzzzzzzzzzzyyyyyyyyyyyyxxxxxxxxxxxxxwwwwwwwwwwwwwwvvvvvvvvvvvvvvvvuuuuuuuuuuuuuuuuuuuuuuuuttttttttttttttttttttttttttttttttttttttttttttttttttttttttuuuuuuuuuuuuuuuuuuuuuuuuvvvvvvvvvvvvvvvvwwwwwwwwwwwwwwxxxxxxxxxxxxxyyyyyyyyyyyyzzzzzzzzzzz+++++..+
(PID.TID 0000.0001) //     20 +..+++++zzzzzzzzzzzzyyyyyyyyyyyyyxxxxxxxxxxxxxwwwwwwwwwwwwwwwvvvvvvvvvvvvvvvvvvvuuuuuuuuuuuuuuuuuuuuuuuuuuuuuuuuuttttttttttttttttttttttttttuuuuuuuuuuuuuuuuuuuuuuuuuuuuuuuuuvvvvvvvvvvvvvvvvvvvwwwwwwwwwwwwwwwxxxxxxxxxxxxxyyyyyyyyyyyyyzzzzzzzzzzzz+++++..+
(PID.TID 0000.0001) //     19 +..+++++zzzzzzzzzzzzzyyyyyyyyyyyyyxxxxxxxxxxxxxxxwwwwwwwwwwwwwwwwvvvvvvvvvvvvvvvvvvvvvvuuuuuuuuuuuuuuuuuuuuuuuuuuuuuuuuuuuuuuuuuuuuuuuuuuuuuuuuuuuuuuuuuuuuuuuuuuuuuuvvvvvvvvvvvvvvvvvvvvvvwwwwwwwwwwwwwwwwxxxxxxxxxxxxxxxyyyyyyyyyyyyyzzzzzzzzzzzzz+++++..+
(PID.TID 0000.0001) //     18 +..++++++zzzzzzzzzzzzzyyyyyyyyyyyyyyxxxxxxxxxxxxxxxxwwwwwwwwwwwwwwwwwwvvvvvvvvvvvvvvvvvvvvvvvvvvuuuuuuuuuuuuuuuuuuuuuuuuuuuuuuuuuuuuuuuuuuuuuuuuuuuuuuuuuuuuvvvvvvvvvvvvvvvvvvvvvvvvvvwwwwwwwwwwwwwwwwwwxxxxxxxxxxxxxxxxyyyyyyyyyyyyyyzzzzzzzzzzzzz++++++..+
(PID.TID 0000.0001) //     17 +..++++++zzzzzzzzzzzzzzzyyyyyyyyyyyyyyyxxxxxxxxxxxxxxxxwwwwwwwwwwwwwwwwwwwwwvvvvvvvvvvvvvvvvvvvvvvvvvvvvvvvvvvvuuuuuuuuuuuuuuuuuuuuuuuuuuuuuuvvvvvvvvvvvvvvvvvvvvvvvvvvvvvvvvvvvwwwwwwwwwwwwwwwwwwwwwxxxxxxxxxxxxxxxxyyyyyyyyyyyyyyyzzzzzzzzzzzzzzz++++++..+
(PID.TID 0000.0001) //     16 +..+++++++zzzzzzzzzzzzzzzyyyyyyyyyyyyyyyyxxxxxxxxxxxxxxxxxxxwwwwwwwwwwwwwwwwwwwwwwwvvvvvvvvvvvvvvvvvvvvvvvvvvvvvvvvvvvvvvvvvvvvvvvvvvvvvvvvvvvvvvvvvvvvvvvvvvvvvvvvvvvvvvwwwwwwwwwwwwwwwwwwwwwwwxxxxxxxxxxxxxxxxxxxyyyyyyyyyyyyyyyyzzzzzzzzzzzzzzz+++++++..+
(PID.TID 0000.0001) //     15 +..+++++++zzzzzzzzzzzzzzzzzyyyyyyyyyyyyyyyyyxxxxxxxxxxxxxxxxxxxxwwwwwwwwwwwwwwwwwwwwwwwwwwwwwvvvvvvvvvvvvvvvvvvvvvvvvvvvvvvvvvvvvvvvvvvvvvvvvvvvvvvvvvvvvvvvvvvwwwwwwwwwwwwwwwwwwwwwwwwwwwwwxxxxxxxxxxxxxxxxxxxxyyyyyyyyyyyyyyyyyzzzzzzzzzzzzzzzzz+++++++..+
(PID.TID 0000.0001) //     14 +..++++++++zzzzzzzzzzzzzzzzzyyyyyyyyyyyyyyyyyyyyxxxxxxxxxxxxxxxxxxxxxxxwwwwwwwwwwwwwwwwwwwwwwwwwwwwwwwwwwwwwwwwvvvvvvvvvvvvvvvvvvvvvvvvvvvvvvwwwwwwwwwwwwwwwwwwwwwwwwwwwwwwwwwwwwwwwwxxxxxxxxxxxxxxxxxxxxxxxyyyyyyyyyyyyyyyyyyyyzzzzzzzzzzzzzzzzz++++++++..+
(PID.TID 0000.0001) //     13 +..++++++++zzzzzzzzzzzzzzzzzzzzyyyyyyyyyyyyyyyyyyyyyxxxxxxxxxxxxxxxxxxxxxxxxxxwwwwwwwwwwwwwwwwwwwwwwwwwwwwwwwwwwwwwwwwwwwwwwwwwwwwwwwwwwwwwwwwwwwwwwwwwwwwwwwwwwwwwwwwwwwwwwwwxxxxxxxxxxxxxxxxxxxxxxxxxxyyyyyyyyyyyyyyyyyyyyyzzzzzzzzzzzzzzzzzzzz++++++++..+
(PID.TID 0000.0001) //     12 +..+++++++++zzzzzzzzzzzzzzzzzzzzzyyyyyyyyyyyyyyyyyyyyyyyyxxxxxxxxxxxxxxxxxxxxxxxxxxxxxxxxxwwwwwwwwwwwwwwwwwwwwwwwwwwwwwwwwwwwwwwwwwwwwwwwwwwwwwwwwwwwwwwwwwwwwwwwwxxxxxxxxxxxxxxxxxxxxxxxxxxxxxxxxxyyyyyyyyyyyyyyyyyyyyyyyyzzzzzzzzzzzzzzzzzzzzz+++++++++..+
(PID.TID 0000.0001) //     11 +..++++++++++zzzzzzzzzzzzzzzzzzzzzzzyyyyyyyyyyyyyyyyyyyyyyyyyyyxxxxxxxxxxxxxxxxxxxxxxxxxxxxxxxxxxxxxxxxxxxxxxxwwwwwwwwwwwwwwwwwwwwwwwwwwwwwwwwxxxxxxxxxxxxxxxxxxxxxxxxxxxxxxxxxxxxxxxxxxxxxxxyyyyyyyyyyyyyyyyyyyyyyyyyyyzzzzzzzzzzzzzzzzzzzzzzz++++++++++..+
(PID.TID 0000.0001) //     10 +..+++++++++++zzzzzzzzzzzzzzzzzzzzzzzzzzyyyyyyyyyyyyyyyyyyyyyyyyyyyyyyyyxxxxxxxxxxxxxxxxxxxxxxxxxxxxxxxxxxxxxxxxxxxxxxxxxxxxxxxxxxxxxxxxxxxxxxxxxxxxxxxxxxxxxxxxxxxxxxxxxxxxxxxxxxxxyyyyyyyyyyyyyyyyyyyyyyyyyyyyyyyyzzzzzzzzzzzzzzzzzzzzzzzzzz+++++++++++..+
(PID.TID 0000.0001) //      9 +..+++++++++++++zzzzzzzzzzzzzzzzzzzzzzzzzzzzzyyyyyyyyyyyyyyyyyyyyyyyyyyyyyyyyyyyyyyyxxxxxxxxxxxxxxxxxxxxxxxxxxxxxxxxxxxxxxxxxxxxxxxxxxxxxxxxxxxxxxxxxxxxxxxxxxxxxxxxxxxxyyyyyyyyyyyyyyyyyyyyyyyyyyyyyyyyyyyyyyyzzzzzzzzzzzzzzzzzzzzzzzzzzzzz+++++++++++++..+
(PID.TID 0000.0001) //      8 +..+++++++++++++++zzzzzzzzzzzzzzzzzzzzzzzzzzzzzzzzzzyyyyyyyyyyyyyyyyyyyyyyyyyyyyyyyyyyyyyyyyyyyyyyyyyyyyyyyyyyxxxxxxxxxxxxxxxxxxxxxxxxxxxxxxxxyyyyyyyyyyyyyyyyyyyyyyyyyyyyyyyyyyyyyyyyyyyyyyyyyyyyyyyyyyzzzzzzzzzzzzzzzzzzzzzzzzzzzzzzzzzz+++++++++++++++..+
(PID.TID 0000.0001) //      7 +..+++++++++++++++++zzzzzzzzzzzzzzzzzzzzzzzzzzzzzzzzzzzzzzzzzyyyyyyyyyyyyyyyyyyyyyyyyyyyyyyyyyyyyyyyyyyyyyyyyyyyyyyyyyyyyyyyyyyyyyyyyyyyyyyyyyyyyyyyyyyyyyyyyyyyyyyyyyyyyyyyyyyyyyyyyyyyyyyyyyyzzzzzzzzzzzzzzzzzzzzzzzzzzzzzzzzzzzzzzzzz+++++++++++++++++..+
(PID.TID 0000.0001) //      6 +..+++++++++++++++++++++zzzzzzzzzzzzzzzzzzzzzzzzzzzzzzzzzzzzzzzzzzzzzzzzzzzzyyyyyyyyyyyyyyyyyyyyyyyyyyyyyyyyyyyyyyyyyyyyyyyyyyyyyyyyyyyyyyyyyyyyyyyyyyyyyyyyyyyyyyyyyyyyyyyyyyyyzzzzzzzzzzzzzzzzzzzzzzzzzzzzzzzzzzzzzzzzzzzzzzzzzzzz+++++++++++++++++++++..+
(PID.TID 0000.0001) //      5 +..++++++++++++++++++++++++++zzzzzzzzzzzzzzzzzzzzzzzzzzzzzzzzzzzzzzzzzzzzzzzzzzzzzzzzzzzzzzzzzzzzzzzzzzzzzzzzzzyyyyyyyyyyyyyyyyyyyyyyyyyyyyyyzzzzzzzzzzzzzzzzzzzzzzzzzzzzzzzzzzzzzzzzzzzzzzzzzzzzzzzzzzzzzzzzzzzzzzzzzzzzzzzzzz++++++++++++++++++++++++++..+
(PID.TID 0000.0001) //      4 +..++++++++++++++++++++++++++++++++++zzzzzzzzzzzzzzzzzzzzzzzzzzzzzzzzzzzzzzzzzzzzzzzzzzzzzzzzzzzzzzzzzzzzzzzzzzzzzzzzzzzzzzzzzzzzzzzzzzzzzzzzzzzzzzzzzzzzzzzzzzzzzzzzzzzzzzzzzzzzzzzzzzzzzzzzzzzzzzzzzzzzzzzzzzzzzzzzzz++++++++++++++++++++++++++++++++++..+
(PID.TID 0000.0001) //      3 +..+++++++++++++++++++++++++++++++++++++++++++++++++zzzzzzzzzzzzzzzzzzzzzzzzzzzzzzzzzzzzzzzzzzzzzzzzzzzzzzzzzzzzzzzzzzzzzzzzzzzzzzzzzzzzzzzzzzzzzzzzzzzzzzzzzzzzzzzzzzzzzzzzzzzzzzzzzzzzzzzzzzzzzzzzzzzz+++++++++++++++++++++++++++++++++++++++++++++++++..+
(PID.TID 0000.0001) //      2 +..++++++++++++++++++++++++++++++++++++++++++++++++++++++++++++++++++++++++++++++++++++++++++++++++++++++++++++++++++zzzzzzzzzzzzzzzzzz++++++++++++++++++++++++++++++++++++++++++++++++++++++++++++++++++++++++++++++++++++++++++++++++++++++++++++++++++..+
(PID.TID 0000.0001) //      1 ............................................................................................................................................................................................................................................................
(PID.TID 0000.0001) //      0 ............................................................................................................................................................................................................................................................
(PID.TID 0000.0001) //     -1 +..++++++++++++++++++++++++++++++++++++++++++++++++++++++++++++++++++++++++++++++++++++++++++++++++++++++++++++++++++zzzzzzzzzzzzzzzzzz++++++++++++++++++++++++++++++++++++++++++++++++++++++++++++++++++++++++++++++++++++++++++++++++++++++++++++++++++..+
(PID.TID 0000.0001) // =======================================================
(PID.TID 0000.0001) // END OF FIELD                                          =
(PID.TID 0000.0001) // =======================================================
(PID.TID 0000.0001) 
(PID.TID 0000.0001) // =======================================================
(PID.TID 0000.0001) // Field hFacW at iteration          0
(PID.TID 0000.0001) // CMIN =          9.000040039062500E-01
(PID.TID 0000.0001) // CMAX =          9.999398437500000E-01
(PID.TID 0000.0001) // CINT =          3.701327401620370E-03
(PID.TID 0000.0001) // SYMBOLS (CMIN->CMAX): -abcdefghijklmnopqrstuvwxyz+
(PID.TID 0000.0001) //                  0.0: .
(PID.TID 0000.0001) // RANGE I (Lo:Hi:Step):(    -1:   250:     1)
(PID.TID 0000.0001) // RANGE J (Lo:Hi:Step):(   250:    -1:    -1)
(PID.TID 0000.0001) // RANGE K (Lo:Hi:Step):(   1:   1:   1)
(PID.TID 0000.0001) // =======================================================
(PID.TID 0000.0001) K =   1
(PID.TID 0000.0001) //                I=8       I=18      I=28      I=38      I=48      I=58      I=68      I=78      I=88      I=98      I=108     I=118     I=128     I=138     I=148     I=158     I=168     I=178     I=188     I=198     I=208     I=218     I=228     I=238     I=248
(PID.TID 0000.0001) // |--J--|101234567|901234567|901234567|901234567|901234567|901234567|901234567|901234567|901234567|901234567|901234567|901234567|901234567|901234567|901234567|901234567|901234567|901234567|901234567|901234567|901234567|901234567|901234567|901234567|901234567|90
(PID.TID 0000.0001) //    250 +...+++++++++++++++++++++++++++++++++++++++++++++++++++++++++++++++++++++++++++++++++++++++++++++++++++++++++++++++++++++++++++++++++++++++++++++++++++++++++++++++++++++++++++++++++++++++++++++++++++++++++++++++++++++++++++++++++++++++++++++++++++++...
(PID.TID 0000.0001) //    249 ............................................................................................................................................................................................................................................................
(PID.TID 0000.0001) //    248 ............................................................................................................................................................................................................................................................
(PID.TID 0000.0001) //    247 +...+++++++++++++++++++++++++++++++++++++++++++++++++++++++++++++++++++++++++++++++++++++++++++++++++++++++++++++++++++++++++++++++++++++++++++++++++++++++++++++++++++++++++++++++++++++++++++++++++++++++++++++++++++++++++++++++++++++++++++++++++++++...
(PID.TID 0000.0001) //    246 +...+++++++++++++++++++++++++++++++++++++++++++++++++zzzzzzzzzzzzzzzzzzzzzzzzzzzzzzzzzzzzzzzzzzzzzzzzzzzzzzzzzzzzzzzzzzzzzzzzzzzzzzzzzzzzzzzzzzzzzzzzzzzzzzzzzzzzzzzzzzzzzzzzzzzzzzzzzzzzzzzzzzzzzzzzzzz+++++++++++++++++++++++++++++++++++++++++++++++++...
(PID.TID 0000.0001) //    245 +...+++++++++++++++++++++++++++++++++zzzzzzzzzzzzzzzzzzzzzzzzzzzzzzzzzzzzzzzzzzzzzzzzzzzzzzzzzzzzzzzzzzzzzzzzzzzzzzzzzzzzzzzzzzzzzzzzzzzzzzzzzzzzzzzzzzzzzzzzzzzzzzzzzzzzzzzzzzzzzzzzzzzzzzzzzzzzzzzzzzzzzzzzzzzzzzzzzzz+++++++++++++++++++++++++++++++++...
(PID.TID 0000.0001) //    244 +...+++++++++++++++++++++++++zzzzzzzzzzzzzzzzzzzzzzzzzzzzzzzzzzzzzzzzzzzzzzzzzzzzzzzzzzzzzzzzzzzzzzzzzzzzzzzzzzzyyyyyyyyyyyyyyyyyyyyyyyyyyyyyzzzzzzzzzzzzzzzzzzzzzzzzzzzzzzzzzzzzzzzzzzzzzzzzzzzzzzzzzzzzzzzzzzzzzzzzzzzzzzzzzzz+++++++++++++++++++++++++...
(PID.TID 0000.0001) //    243 +...++++++++++++++++++++zzzzzzzzzzzzzzzzzzzzzzzzzzzzzzzzzzzzzzzzzzzzzzzzzzzzyyyyyyyyyyyyyyyyyyyyyyyyyyyyyyyyyyyyyyyyyyyyyyyyyyyyyyyyyyyyyyyyyyyyyyyyyyyyyyyyyyyyyyyyyyyyyyyyyyyyyzzzzzzzzzzzzzzzzzzzzzzzzzzzzzzzzzzzzzzzzzzzzzzzzzzzz++++++++++++++++++++...
(PID.TID 0000.0001) //    242 +...+++++++++++++++++zzzzzzzzzzzzzzzzzzzzzzzzzzzzzzzzzzzzzzzzyyyyyyyyyyyyyyyyyyyyyyyyyyyyyyyyyyyyyyyyyyyyyyyyyyyyyyyyyyyyyyyyyyyyyyyyyyyyyyyyyyyyyyyyyyyyyyyyyyyyyyyyyyyyyyyyyyyyyyyyyyyyyyyyyyyzzzzzzzzzzzzzzzzzzzzzzzzzzzzzzzzzzzzzzzz+++++++++++++++++...
(PID.TID 0000.0001) //    241 +...++++++++++++++zzzzzzzzzzzzzzzzzzzzzzzzzzzzzzzzzzyyyyyyyyyyyyyyyyyyyyyyyyyyyyyyyyyyyyyyyyyyyyyyyyyyyyyyyyyyyxxxxxxxxxxxxxxxxxxxxxxxxxxxxxxxyyyyyyyyyyyyyyyyyyyyyyyyyyyyyyyyyyyyyyyyyyyyyyyyyyyyyyyyyyyzzzzzzzzzzzzzzzzzzzzzzzzzzzzzzzzzz++++++++++++++...
(PID.TID 0000.0001) //    240 +...++++++++++++zzzzzzzzzzzzzzzzzzzzzzzzzzzzzyyyyyyyyyyyyyyyyyyyyyyyyyyyyyyyyyyyyyyyyxxxxxxxxxxxxxxxxxxxxxxxxxxxxxxxxxxxxxxxxxxxxxxxxxxxxxxxxxxxxxxxxxxxxxxxxxxxxxxxxxxxyyyyyyyyyyyyyyyyyyyyyyyyyyyyyyyyyyyyyyyyzzzzzzzzzzzzzzzzzzzzzzzzzzzzz++++++++++++...
(PID.TID 0000.0001) //    239 +...+++++++++++zzzzzzzzzzzzzzzzzzzzzzzzzyyyyyyyyyyyyyyyyyyyyyyyyyyyyyyyyxxxxxxxxxxxxxxxxxxxxxxxxxxxxxxxxxxxxxxxxxxxxxxxxxxxxxxxxxxxxxxxxxxxxxxxxxxxxxxxxxxxxxxxxxxxxxxxxxxxxxxxxxxxxxyyyyyyyyyyyyyyyyyyyyyyyyyyyyyyyyzzzzzzzzzzzzzzzzzzzzzzzzz+++++++++++...
(PID.TID 0000.0001) //    238 +...+++++++++zzzzzzzzzzzzzzzzzzzzzzzyyyyyyyyyyyyyyyyyyyyyyyyyyyxxxxxxxxxxxxxxxxxxxxxxxxxxxxxxxxxxxxxxxxxxxxxxxxwwwwwwwwwwwwwwwwwwwwwwwwwwwwwwwxxxxxxxxxxxxxxxxxxxxxxxxxxxxxxxxxxxxxxxxxxxxxxxxyyyyyyyyyyyyyyyyyyyyyyyyyyyzzzzzzzzzzzzzzzzzzzzzzz+++++++++...
(PID.TID 0000.0001) //    237 +...++++++++zzzzzzzzzzzzzzzzzzzzzyyyyyyyyyyyyyyyyyyyyyyyyxxxxxxxxxxxxxxxxxxxxxxxxxxxxxxxxxwwwwwwwwwwwwwwwwwwwwwwwwwwwwwwwwwwwwwwwwwwwwwwwwwwwwwwwwwwwwwwwwwwwwwwwwwxxxxxxxxxxxxxxxxxxxxxxxxxxxxxxxxxyyyyyyyyyyyyyyyyyyyyyyyyzzzzzzzzzzzzzzzzzzzzz++++++++...
(PID.TID 0000.0001) //    236 +...++++++++zzzzzzzzzzzzzzzzzzzyyyyyyyyyyyyyyyyyyyyyxxxxxxxxxxxxxxxxxxxxxxxxxxxwwwwwwwwwwwwwwwwwwwwwwwwwwwwwwwwwwwwwwwwwwwwwwwwwwwwwwwwwwwwwwwwwwwwwwwwwwwwwwwwwwwwwwwwwwwwwwwxxxxxxxxxxxxxxxxxxxxxxxxxxxyyyyyyyyyyyyyyyyyyyyyzzzzzzzzzzzzzzzzzzz++++++++...
(PID.TID 0000.0001) //    235 +...+++++++zzzzzzzzzzzzzzzzzzyyyyyyyyyyyyyyyyyyyxxxxxxxxxxxxxxxxxxxxxxxwwwwwwwwwwwwwwwwwwwwwwwwwwwwwwwwwwwwwwwwvvvvvvvvvvvvvvvvvvvvvvvvvvvvvvvwwwwwwwwwwwwwwwwwwwwwwwwwwwwwwwwwwwwwwwwxxxxxxxxxxxxxxxxxxxxxxxyyyyyyyyyyyyyyyyyyyzzzzzzzzzzzzzzzzzz+++++++...
(PID.TID 0000.0001) //    234 +...++++++zzzzzzzzzzzzzzzzzyyyyyyyyyyyyyyyyyxxxxxxxxxxxxxxxxxxxxxwwwwwwwwwwwwwwwwwwwwwwwwwwwwvvvvvvvvvvvvvvvvvvvvvvvvvvvvvvvvvvvvvvvvvvvvvvvvvvvvvvvvvvvvvvvvvvvwwwwwwwwwwwwwwwwwwwwwwwwwwwwxxxxxxxxxxxxxxxxxxxxxyyyyyyyyyyyyyyyyyzzzzzzzzzzzzzzzzz++++++...
(PID.TID 0000.0001) //    233 +...++++++zzzzzzzzzzzzzzzyyyyyyyyyyyyyyyyxxxxxxxxxxxxxxxxxxxwwwwwwwwwwwwwwwwwwwwwwwvvvvvvvvvvvvvvvvvvvvvvvvvvvvvvvvvvvvvvvvvvvvvvvvvvvvvvvvvvvvvvvvvvvvvvvvvvvvvvvvvvvvvvvwwwwwwwwwwwwwwwwwwwwwwwxxxxxxxxxxxxxxxxxxxyyyyyyyyyyyyyyyyzzzzzzzzzzzzzzz++++++...
(PID.TID 0000.0001) //    232 +...+++++zzzzzzzzzzzzzzzyyyyyyyyyyyyyyyxxxxxxxxxxxxxxxxxwwwwwwwwwwwwwwwwwwwwvvvvvvvvvvvvvvvvvvvvvvvvvvvvvvvvvvvvuuuuuuuuuuuuuuuuuuuuuuuuuuuuuvvvvvvvvvvvvvvvvvvvvvvvvvvvvvvvvvvvvwwwwwwwwwwwwwwwwwwwwxxxxxxxxxxxxxxxxxyyyyyyyyyyyyyyyzzzzzzzzzzzzzzz+++++...
(PID.TID 0000.0001) //    231 +...+++++zzzzzzzzzzzzzyyyyyyyyyyyyyyyxxxxxxxxxxxxxxxwwwwwwwwwwwwwwwwwwvvvvvvvvvvvvvvvvvvvvvvvvvvuuuuuuuuuuuuuuuuuuuuuuuuuuuuuuuuuuuuuuuuuuuuuuuuuuuuuuuuuuuuuvvvvvvvvvvvvvvvvvvvvvvvvvvwwwwwwwwwwwwwwwwwwxxxxxxxxxxxxxxxyyyyyyyyyyyyyyyzzzzzzzzzzzzz+++++...
(PID.TID 0000.0001) //    230 +...+++++zzzzzzzzzzzzyyyyyyyyyyyyyyxxxxxxxxxxxxxxwwwwwwwwwwwwwwwwvvvvvvvvvvvvvvvvvvvvvvuuuuuuuuuuuuuuuuuuuuuuuuuuuuuuuuuuuuuuuuuuuuuuuuuuuuuuuuuuuuuuuuuuuuuuuuuuuuuuuvvvvvvvvvvvvvvvvvvvvvvwwwwwwwwwwwwwwwwxxxxxxxxxxxxxxyyyyyyyyyyyyyyzzzzzzzzzzzz+++++...
(PID.TID 0000.0001) //    229 +...++++zzzzzzzzzzzzyyyyyyyyyyyyyxxxxxxxxxxxxxwwwwwwwwwwwwwwwvvvvvvvvvvvvvvvvvvvuuuuuuuuuuuuuuuuuuuuuuuuuuuuuuuuutttttttttttttttttttttttttttuuuuuuuuuuuuuuuuuuuuuuuuuuuuuuuuuvvvvvvvvvvvvvvvvvvvwwwwwwwwwwwwwwwxxxxxxxxxxxxxyyyyyyyyyyyyyzzzzzzzzzzzz++++...
(PID.TID 0000.0001) //    228 +...++++zzzzzzzzzzzyyyyyyyyyyyyxxxxxxxxxxxxxwwwwwwwwwwwwwwvvvvvvvvvvvvvvvvvuuuuuuuuuuuuuuuuuuuuuuutttttttttttttttttttttttttttttttttttttttttttttttttttttttttuuuuuuuuuuuuuuuuuuuuuuuvvvvvvvvvvvvvvvvvwwwwwwwwwwwwwwxxxxxxxxxxxxxyyyyyyyyyyyyzzzzzzzzzzz++++...
(PID.TID 0000.0001) //    227 +...++++zzzzzzzzzzzyyyyyyyyyyyxxxxxxxxxxxxwwwwwwwwwwwwwvvvvvvvvvvvvvvvuuuuuuuuuuuuuuuuuuuutttttttttttttttttttttttttttttttttttttttttttttttttttttttttttttttttttttttttuuuuuuuuuuuuuuuuuuuuvvvvvvvvvvvvvvvwwwwwwwwwwwwwxxxxxxxxxxxxyyyyyyyyyyyzzzzzzzzzzz++++...
(PID.TID 0000.0001) //    226 +...+++zzzzzzzzzzzyyyyyyyyyyyxxxxxxxxxxxwwwwwwwwwwwwvvvvvvvvvvvvvvuuuuuuuuuuuuuuuuutttttttttttttttttttttttttttttttssssssssssssssssssssssssstttttttttttttttttttttttttttttttuuuuuuuuuuuuuuuuuvvvvvvvvvvvvvvwwwwwwwwwwwwxxxxxxxxxxxyyyyyyyyyyyzzzzzzzzzzz+++...
(PID.TID 0000.0001) //    225 +...+++zzzzzzzzzzyyyyyyyyyyyxxxxxxxxxxwwwwwwwwwwwwvvvvvvvvvvvvvuuuuuuuuuuuuuuutttttttttttttttttttttttssssssssssssssssssssssssssssssssssssssssssssssssssstttttttttttttttttttttttuuuuuuuuuuuuuuuvvvvvvvvvvvvvwwwwwwwwwwwwxxxxxxxxxxyyyyyyyyyyyzzzzzzzzzz+++...
(PID.TID 0000.0001) //    224 +...+++zzzzzzzzzzyyyyyyyyyxxxxxxxxxxxwwwwwwwwwwwvvvvvvvvvvvvuuuuuuuuuuuuuuttttttttttttttttttsssssssssssssssssssssssssssssssssssssssssssssssssssssssssssssssssssssttttttttttttttttttuuuuuuuuuuuuuuvvvvvvvvvvvvwwwwwwwwwwwxxxxxxxxxxxyyyyyyyyyzzzzzzzzzz+++...
(PID.TID 0000.0001) //    223 +...+++zzzzzzzzzyyyyyyyyyyxxxxxxxxxwwwwwwwwwwwvvvvvvvvvvvuuuuuuuuuuuuuttttttttttttttttsssssssssssssssssssssssssssssssrrrrrrrrrrrrrrrrrrrsssssssssssssssssssssssssssssssttttttttttttttttuuuuuuuuuuuuuvvvvvvvvvvvwwwwwwwwwwwxxxxxxxxxyyyyyyyyyyzzzzzzzzz+++...
(PID.TID 0000.0001) //    222 +...+++zzzzzzzzzyyyyyyyyyxxxxxxxxxwwwwwwwwwwvvvvvvvvvvvuuuuuuuuuuuuttttttttttttttssssssssssssssssssssssrrrrrrrrrrrrrrrrrrrrrrrrrrrrrrrrrrrrrrrrrrrrrrrssssssssssssssssssssssttttttttttttttuuuuuuuuuuuuvvvvvvvvvvvwwwwwwwwwwxxxxxxxxxyyyyyyyyyzzzzzzzzz+++...
(PID.TID 0000.0001) //    221 +...++zzzzzzzzzyyyyyyyyyxxxxxxxxxwwwwwwwwwvvvvvvvvvvvuuuuuuuuuuutttttttttttttssssssssssssssssssrrrrrrrrrrrrrrrrrrrrrrrrrrrrrrrrrrrrrrrrrrrrrrrrrrrrrrrrrrrrrrrsssssssssssssssssstttttttttttttuuuuuuuuuuuvvvvvvvvvvvwwwwwwwwwxxxxxxxxxyyyyyyyyyzzzzzzzzz++...
(PID.TID 0000.0001) //    220 +...++zzzzzzzzzyyyyyyyyxxxxxxxxxwwwwwwwwwvvvvvvvvvvuuuuuuuuuutttttttttttttsssssssssssssssrrrrrrrrrrrrrrrrrrrrrrrrrrrrrrrqqqqqqqqqqqqqrrrrrrrrrrrrrrrrrrrrrrrrrrrrrrrssssssssssssssstttttttttttttuuuuuuuuuuvvvvvvvvvvwwwwwwwwwxxxxxxxxxyyyyyyyyzzzzzzzzz++...
(PID.TID 0000.0001) //    219 +...++zzzzzzzzyyyyyyyyxxxxxxxxxwwwwwwwwwvvvvvvvvvuuuuuuuuuutttttttttttssssssssssssssrrrrrrrrrrrrrrrrrrrrrqqqqqqqqqqqqqqqqqqqqqqqqqqqqqqqqqqqqqqqqqqqrrrrrrrrrrrrrrrrrrrrrsssssssssssssstttttttttttuuuuuuuuuuvvvvvvvvvwwwwwwwwwxxxxxxxxxyyyyyyyyzzzzzzzz++...
(PID.TID 0000.0001) //    218 +...++zzzzzzzzyyyyyyyyxxxxxxxxwwwwwwwwvvvvvvvvvuuuuuuuuuutttttttttttssssssssssssrrrrrrrrrrrrrrrrrqqqqqqqqqqqqqqqqqqqqqqqqqqqqqqqqqqqqqqqqqqqqqqqqqqqqqqqqqqqrrrrrrrrrrrrrrrrrsssssssssssstttttttttttuuuuuuuuuuvvvvvvvvvwwwwwwwwxxxxxxxxyyyyyyyyzzzzzzzz++...
(PID.TID 0000.0001) //    217 +...++zzzzzzzyyyyyyyyxxxxxxxxwwwwwwwwvvvvvvvvvuuuuuuuuuttttttttttssssssssssssrrrrrrrrrrrrrrrqqqqqqqqqqqqqqqqqqqqqqqqqqqqqqqqqqqqqqqqqqqqqqqqqqqqqqqqqqqqqqqqqqqqqrrrrrrrrrrrrrrrssssssssssssttttttttttuuuuuuuuuvvvvvvvvvwwwwwwwwxxxxxxxxyyyyyyyyzzzzzzz++...
(PID.TID 0000.0001) //    216 +...++zzzzzzzyyyyyyyyxxxxxxxwwwwwwwwvvvvvvvvuuuuuuuuuttttttttttsssssssssssrrrrrrrrrrrrrqqqqqqqqqqqqqqqqqqqqqpppppppppppppppppppppppppppppppppppppqqqqqqqqqqqqqqqqqqqqqrrrrrrrrrrrrrsssssssssssttttttttttuuuuuuuuuvvvvvvvvwwwwwwwwxxxxxxxyyyyyyyyzzzzzzz++...
(PID.TID 0000.0001) //    215 +...++zzzzzzzyyyyyyyxxxxxxxwwwwwwwwvvvvvvvvuuuuuuuuttttttttttssssssssssrrrrrrrrrrrrqqqqqqqqqqqqqqqqqpppppppppppppppppppppppppppppppppppppppppppppppppppppqqqqqqqqqqqqqqqqqrrrrrrrrrrrrssssssssssttttttttttuuuuuuuuvvvvvvvvwwwwwwwwxxxxxxxyyyyyyyzzzzzzz++...
(PID.TID 0000.0001) //    214 +...++zzzzzzyyyyyyyyxxxxxxxwwwwwwwvvvvvvvvuuuuuuuutttttttttsssssssssrrrrrrrrrrrrqqqqqqqqqqqqqqpppppppppppppppppppppppppppppppppppppppppppppppppppppppppppppppppqqqqqqqqqqqqqqrrrrrrrrrrrrssssssssstttttttttuuuuuuuuvvvvvvvvwwwwwwwxxxxxxxyyyyyyyyzzzzzz++...
(PID.TID 0000.0001) //    213 +...+zzzzzzzyyyyyyyxxxxxxxwwwwwwwvvvvvvvvuuuuuuutttttttttsssssssssrrrrrrrrrrrqqqqqqqqqqqqqppppppppppppppppppppoooooooooooooooooooooooooooooooooppppppppppppppppppppqqqqqqqqqqqqqrrrrrrrrrrrssssssssstttttttttuuuuuuuvvvvvvvvwwwwwwwxxxxxxxyyyyyyyzzzzzzz+...
(PID.TID 0000.0001) //    212 +...+zzzzzzzyyyyyyyxxxxxxwwwwwwwvvvvvvvvuuuuuuuttttttttsssssssssrrrrrrrrrrqqqqqqqqqqqqppppppppppppppppoooooooooooooooooooooooooooooooooooooooooooooooooppppppppppppppppqqqqqqqqqqqqrrrrrrrrrrsssssssssttttttttuuuuuuuvvvvvvvvwwwwwwwxxxxxxyyyyyyyzzzzzzz+...
(PID.TID 0000.0001) //    211 +...+zzzzzzzyyyyyyxxxxxxxwwwwwwwvvvvvvvuuuuuuuttttttttssssssssrrrrrrrrrqqqqqqqqqqqpppppppppppppppooooooooooooooooooooooooooooooooooooooooooooooooooooooooooopppppppppppppppqqqqqqqqqqqrrrrrrrrrssssssssttttttttuuuuuuuvvvvvvvwwwwwwwxxxxxxxyyyyyyzzzzzzz+...
(PID.TID 0000.0001) //    210 +...+zzzzzzyyyyyyyxxxxxxwwwwwwwvvvvvvvuuuuuuutttttttssssssssrrrrrrrrrqqqqqqqqqqpppppppppppppoooooooooooooooooooooonnnnnnnnnnnnnnnnnnnnnnnnnoooooooooooooooooooooopppppppppppppqqqqqqqqqqrrrrrrrrrsssssssstttttttuuuuuuuvvvvvvvwwwwwwwxxxxxxyyyyyyyzzzzzz+...
(PID.TID 0000.0001) //    209 +...+zzzzzzyyyyyyxxxxxxxwwwwwwvvvvvvvuuuuuuutttttttssssssssrrrrrrrrqqqqqqqqqqpppppppppppooooooooooooooooonnnnnnnnnnnnnnnnnnnnnnnnnnnnnnnnnnnnnnnnnnnooooooooooooooooopppppppppppqqqqqqqqqqrrrrrrrrsssssssstttttttuuuuuuuvvvvvvvwwwwwwxxxxxxxyyyyyyzzzzzz+...
(PID.TID 0000.0001) //    208 +...+zzzzzzyyyyyyxxxxxxwwwwwwvvvvvvvuuuuuuutttttttsssssssrrrrrrrrqqqqqqqqqpppppppppppoooooooooooooonnnnnnnnnnnnnnnnnnnnnnnnnnnnnnnnnnnnnnnnnnnnnnnnnnnnnnnoooooooooooooopppppppppppqqqqqqqqqrrrrrrrrssssssstttttttuuuuuuuvvvvvvvwwwwwwxxxxxxyyyyyyzzzzzz+...
(PID.TID 0000.0001) //    207 +...+zzzzzzyyyyyyxxxxxxwwwwwwvvvvvvuuuuuuuttttttssssssssrrrrrrrqqqqqqqqqppppppppppooooooooooooonnnnnnnnnnnnnnnnnnnnnnnnnmmmmmmmmmmmmmnnnnnnnnnnnnnnnnnnnnnnnnnoooooooooooooppppppppppqqqqqqqqqrrrrrrrssssssssttttttuuuuuuuvvvvvvwwwwwwxxxxxxyyyyyyzzzzzz+...
(PID.TID 0000.0001) //    206 +...+zzzzzzyyyyyxxxxxxwwwwwwvvvvvvuuuuuuuttttttsssssssrrrrrrrrqqqqqqqqpppppppppoooooooooooonnnnnnnnnnnnnnnnnnmmmmmmmmmmmmmmmmmmmmmmmmmmmmmmmmmmmnnnnnnnnnnnnnnnnnnoooooooooooopppppppppqqqqqqqqrrrrrrrrsssssssttttttuuuuuuuvvvvvvwwwwwwxxxxxxyyyyyzzzzzz+...
(PID.TID 0000.0001) //    205 +...+zzzzzyyyyyyxxxxxxwwwwwwvvvvvvuuuuuuttttttsssssssrrrrrrrqqqqqqqqpppppppppooooooooooonnnnnnnnnnnnnnmmmmmmmmmmmmmmmmmmmmmmmmmmmmmmmmmmmmmmmmmmmmmmmmmnnnnnnnnnnnnnnooooooooooopppppppppqqqqqqqqrrrrrrrsssssssttttttuuuuuuvvvvvvwwwwwwxxxxxxyyyyyyzzzzz+...
(PID.TID 0000.0001) //    204 +...+zzzzzyyyyyyxxxxxwwwwwwvvvvvvuuuuuuttttttsssssssrrrrrrrqqqqqqqpppppppppoooooooooonnnnnnnnnnnnnmmmmmmmmmmmmmmmmmmmmmmmmmmmmmmmmmmmmmmmmmmmmmmmmmmmmmmmmmnnnnnnnnnnnnnoooooooooopppppppppqqqqqqqrrrrrrrsssssssttttttuuuuuuvvvvvvwwwwwwxxxxxyyyyyyzzzzz+...
(PID.TID 0000.0001) //    203 +...+zzzzzyyyyyyxxxxxwwwwwwvvvvvuuuuuuttttttsssssssrrrrrrqqqqqqqqppppppppooooooooonnnnnnnnnnnnmmmmmmmmmmmmmmmmmmmlllllllllllllllllllllllllllmmmmmmmmmmmmmmmmmmmnnnnnnnnnnnnoooooooooppppppppqqqqqqqqrrrrrrsssssssttttttuuuuuuvvvvvwwwwwwxxxxxyyyyyyzzzzz+...
(PID.TID 0000.0001) //    202 +...+zzzzzyyyyyxxxxxxwwwwwvvvvvvuuuuuttttttsssssssrrrrrrqqqqqqqppppppppooooooooonnnnnnnnnnmmmmmmmmmmmmmmmmlllllllllllllllllllllllllllllllllllllllllmmmmmmmmmmmmmmmmnnnnnnnnnnoooooooooppppppppqqqqqqqrrrrrrsssssssttttttuuuuuvvvvvvwwwwwxxxxxxyyyyyzzzzz+...
(PID.TID 0000.0001) //    201 +...+zzzzzyyyyyxxxxxwwwwwwvvvvvuuuuuuttttttssssssrrrrrrqqqqqqqpppppppooooooooonnnnnnnnnnmmmmmmmmmmmmmlllllllllllllllllllllllllllllllllllllllllllllllllllmmmmmmmmmmmmmnnnnnnnnnnooooooooopppppppqqqqqqqrrrrrrssssssttttttuuuuuuvvvvvwwwwwwxxxxxyyyyyzzzzz+...
(PID.TID 0000.0001) //    200 +...+zzzzzyyyyyxxxxxwwwwwvvvvvvuuuuuttttttssssssrrrrrrqqqqqqqpppppppoooooooonnnnnnnnnmmmmmmmmmmmmllllllllllllllllllllllkkkkkkkkkkkkkkkllllllllllllllllllllllmmmmmmmmmmmmnnnnnnnnnoooooooopppppppqqqqqqqrrrrrrssssssttttttuuuuuvvvvvvwwwwwxxxxxyyyyyzzzzz+...
(PID.TID 0000.0001) //    199 +...+zzzzzyyyyyxxxxxwwwwwvvvvvuuuuuttttttssssssrrrrrrqqqqqqpppppppoooooooonnnnnnnnnmmmmmmmmmmlllllllllllllllllkkkkkkkkkkkkkkkkkkkkkkkkkkkkkkkkklllllllllllllllllmmmmmmmmmmnnnnnnnnnoooooooopppppppqqqqqqrrrrrrssssssttttttuuuuuvvvvvwwwwwxxxxxyyyyyzzzzz+...
(PID.TID 0000.0001) //    198 +...+zzzzyyyyyxxxxxwwwwwvvvvvvuuuuutttttssssssrrrrrrqqqqqqpppppppooooooonnnnnnnnmmmmmmmmmmllllllllllllllkkkkkkkkkkkkkkkkkkkkkkkkkkkkkkkkkkkkkkkkkkkkkllllllllllllllmmmmmmmmmmnnnnnnnnooooooopppppppqqqqqqrrrrrrsssssstttttuuuuuvvvvvvwwwwwxxxxxyyyyyzzzz+...
(PID.TID 0000.0001) //    197 z...zzzzzyyyyyxxxxxwwwwwvvvvvuuuuuttttttsssssrrrrrrqqqqqqppppppoooooooonnnnnnnmmmmmmmmmmllllllllllllkkkkkkkkkkkkkkkkkkkkkkkkkkkkkkkkkkkkkkkkkkkkkkkkkkkkkllllllllllllmmmmmmmmmmnnnnnnnooooooooppppppqqqqqqrrrrrrsssssttttttuuuuuvvvvvwwwwwxxxxxyyyyyzzzzz...
(PID.TID 0000.0001) //    196 z...zzzzzyyyyyxxxxxwwwwwvvvvvuuuuutttttsssssrrrrrrqqqqqqppppppooooooonnnnnnnnmmmmmmmmlllllllllllkkkkkkkkkkkkkkkkkkkjjjjjjjjjjjjjjjjjjjjjjjkkkkkkkkkkkkkkkkkkklllllllllllmmmmmmmmnnnnnnnnoooooooppppppqqqqqqrrrrrrssssstttttuuuuuvvvvvwwwwwxxxxxyyyyyzzzzz...
(PID.TID 0000.0001) //    195 z...zzzzzyyyyyxxxxxwwwwvvvvvuuuuutttttssssssrrrrrqqqqqqppppppooooooonnnnnnnmmmmmmmmllllllllllkkkkkkkkkkkkkkkjjjjjjjjjjjjjjjjjjjjjjjjjjjjjjjjjjjjjkkkkkkkkkkkkkkkllllllllllmmmmmmmmnnnnnnnoooooooppppppqqqqqqrrrrrsssssstttttuuuuuvvvvvwwwwxxxxxyyyyyzzzzz...
(PID.TID 0000.0001) //    194 z...zzzzzyyyyyxxxxwwwwwvvvvvuuuuutttttsssssrrrrrqqqqqqppppppoooooonnnnnnnmmmmmmmmllllllllllkkkkkkkkkkkkkjjjjjjjjjjjjjjjjjjjjjjjjjjjjjjjjjjjjjjjjjjjjjkkkkkkkkkkkkkllllllllllmmmmmmmmnnnnnnnooooooppppppqqqqqqrrrrrssssstttttuuuuuvvvvvwwwwwxxxxyyyyyzzzzz...
(PID.TID 0000.0001) //    193 z...zzzzzyyyyxxxxxwwwwwvvvvuuuuutttttsssssrrrrrqqqqqqppppppoooooonnnnnnnmmmmmmmlllllllllkkkkkkkkkkkkjjjjjjjjjjjjjjjjjjjjjjjjjjjjjjjjjjjjjjjjjjjjjjjjjjjjjkkkkkkkkkkkklllllllllmmmmmmmnnnnnnnooooooppppppqqqqqqrrrrrssssstttttuuuuuvvvvwwwwwxxxxxyyyyzzzzz...
(PID.TID 0000.0001) //    192 z...zzzzzyyyyxxxxxwwwwvvvvvuuuuutttttsssssrrrrrqqqqqppppppoooooonnnnnnmmmmmmmmllllllllkkkkkkkkkkkjjjjjjjjjjjjjjjjjiiiiiiiiiiiiiiiiiiiiiiiiijjjjjjjjjjjjjjjjjkkkkkkkkkkkllllllllmmmmmmmmnnnnnnooooooppppppqqqqqrrrrrssssstttttuuuuuvvvvvwwwwxxxxxyyyyzzzzz...
(PID.TID 0000.0001) //    191 z...zzzzzyyyyxxxxxwwwwvvvvvuuuutttttsssssrrrrrqqqqqppppppoooooonnnnnnmmmmmmmllllllllkkkkkkkkkkjjjjjjjjjjjjjjiiiiiiiiiiiiiiiiiiiiiiiiiiiiiiiiiiiiijjjjjjjjjjjjjjkkkkkkkkkkllllllllmmmmmmmnnnnnnooooooppppppqqqqqrrrrrssssstttttuuuuvvvvvwwwwxxxxxyyyyzzzzz...
(PID.TID 0000.0001) //    190 z...zzzzzyyyyxxxxwwwwwvvvvuuuuutttttssssrrrrrqqqqqqpppppoooooonnnnnnmmmmmmmlllllllkkkkkkkkkjjjjjjjjjjjjjiiiiiiiiiiiiiiiiiiiiiiiiiiiiiiiiiiiiiiiiiiiiijjjjjjjjjjjjjkkkkkkkkklllllllmmmmmmmnnnnnnoooooopppppqqqqqqrrrrrsssstttttuuuuuvvvvwwwwwxxxxyyyyzzzzz...
(PID.TID 0000.0001) //    189 z...zzzzyyyyyxxxxwwwwvvvvvuuuutttttsssssrrrrrqqqqqpppppoooooonnnnnnmmmmmmllllllllkkkkkkkkjjjjjjjjjjjiiiiiiiiiiiiiiiiiiiiiiiiiiiiiiiiiiiiiiiiiiiiiiiiiiiiijjjjjjjjjjjkkkkkkkkllllllllmmmmmmnnnnnnoooooopppppqqqqqrrrrrssssstttttuuuuvvvvvwwwwxxxxyyyyyzzzz...
(PID.TID 0000.0001) //    188 z...zzzzyyyyyxxxxwwwwvvvvvuuuutttttssssrrrrrqqqqqpppppoooooonnnnnnmmmmmmlllllllkkkkkkkkjjjjjjjjjjiiiiiiiiiiiiiiiiihhhhhhhhhhhhhhhhhhhhhhhhhiiiiiiiiiiiiiiiiijjjjjjjjjjkkkkkkkklllllllmmmmmmnnnnnnoooooopppppqqqqqrrrrrsssstttttuuuuvvvvvwwwwxxxxyyyyyzzzz...
(PID.TID 0000.0001) //    187 z...zzzzyyyyxxxxxwwwwvvvvuuuuuttttsssssrrrrqqqqqpppppoooooonnnnnnmmmmmmlllllllkkkkkkkjjjjjjjjjjiiiiiiiiiiiiihhhhhhhhhhhhhhhhhhhhhhhhhhhhhhhhhhhhhiiiiiiiiiiiiijjjjjjjjjjkkkkkkklllllllmmmmmmnnnnnnoooooopppppqqqqqrrrrsssssttttuuuuuvvvvwwwwxxxxxyyyyzzzz...
(PID.TID 0000.0001) //    186 z...zzzzyyyyxxxxxwwwwvvvvuuuutttttssssrrrrrqqqqqpppppooooonnnnnnmmmmmmllllllkkkkkkkkjjjjjjjjiiiiiiiiiiiiihhhhhhhhhhhhhhhhhhhhhhhhhhhhhhhhhhhhhhhhhhhiiiiiiiiiiiiijjjjjjjjkkkkkkkkllllllmmmmmmnnnnnnooooopppppqqqqqrrrrrsssstttttuuuuvvvvwwwwxxxxxyyyyzzzz...
(PID.TID 0000.0001) //    185 z...zzzzyyyyxxxxwwwwvvvvvuuuuttttsssssrrrrqqqqqpppppooooonnnnnnmmmmmlllllllkkkkkkkjjjjjjjjiiiiiiiiiiihhhhhhhhhhhhhhhhhhhhhhhhhhhhhhhhhhhhhhhhhhhhhhhhhhhiiiiiiiiiiijjjjjjjjkkkkkkklllllllmmmmmnnnnnnooooopppppqqqqqrrrrsssssttttuuuuvvvvvwwwwxxxxyyyyzzzz...
(PID.TID 0000.0001) //    184 z...zzzzyyyyxxxxwwwwvvvvuuuuuttttssssrrrrrqqqqpppppooooonnnnnnmmmmmlllllllkkkkkkjjjjjjjjiiiiiiiiiiihhhhhhhhhhhhhhhhggggggggggggggggggggggghhhhhhhhhhhhhhhhiiiiiiiiiiijjjjjjjjkkkkkklllllllmmmmmnnnnnnooooopppppqqqqrrrrrssssttttuuuuuvvvvwwwwxxxxyyyyzzzz...
(PID.TID 0000.0001) //    183 z...zzzzyyyyxxxxwwwwvvvvuuuutttttssssrrrrqqqqqpppppooooonnnnnmmmmmllllllkkkkkkkjjjjjjjjiiiiiiiiihhhhhhhhhhhhhhggggggggggggggggggggggggggggggggghhhhhhhhhhhhhhiiiiiiiiijjjjjjjjkkkkkkkllllllmmmmmnnnnnooooopppppqqqqqrrrrsssstttttuuuuvvvvwwwwxxxxyyyyzzzz...
(PID.TID 0000.0001) //    182 z...zzzzyyyyxxxxwwwwvvvvuuuuttttssssrrrrrqqqqpppppooooonnnnnmmmmmllllllkkkkkkkjjjjjjjiiiiiiiiihhhhhhhhhhhhggggggggggggggggggggggggggggggggggggggggghhhhhhhhhhhhiiiiiiiiijjjjjjjkkkkkkkllllllmmmmmnnnnnooooopppppqqqqrrrrrssssttttuuuuvvvvwwwwxxxxyyyyzzzz...
(PID.TID 0000.0001) //    181 z...zzzzyyyyxxxxwwwwvvvvuuuuttttssssrrrrqqqqqppppooooonnnnnmmmmmmlllllkkkkkkkjjjjjjjiiiiiiiihhhhhhhhhhhggggggggggggggggggggggggggggggggggggggggggggggghhhhhhhhhhhiiiiiiiijjjjjjjkkkkkkklllllmmmmmmnnnnnoooooppppqqqqqrrrrssssttttuuuuvvvvwwwwxxxxyyyyzzzz...
(PID.TID 0000.0001) //    180 z...zzzzyyyyxxxxwwwvvvvuuuuttttsssssrrrrqqqqpppppooooonnnnmmmmmmlllllkkkkkkjjjjjjjiiiiiiiihhhhhhhhhhggggggggggggggggggfffffffffffffffffgggggggggggggggggghhhhhhhhhhiiiiiiiijjjjjjjkkkkkklllllmmmmmmnnnnooooopppppqqqqrrrrsssssttttuuuuvvvvwwwxxxxyyyyzzzz...
(PID.TID 0000.0001) //    179 z...zzzzyyyyxxxwwwwvvvvuuuuttttssssrrrrqqqqqppppooooonnnnnmmmmmlllllkkkkkkjjjjjjjiiiiiiihhhhhhhhhhggggggggggggggfffffffffffffffffffffffffffffgggggggggggggghhhhhhhhhhiiiiiiijjjjjjjkkkkkklllllmmmmmnnnnnoooooppppqqqqqrrrrssssttttuuuuvvvvwwwwxxxyyyyzzzz...
(PID.TID 0000.0001) //    178 z...zzzzyyyxxxxwwwwvvvvuuuuttttssssrrrrqqqqpppppoooonnnnnmmmmmlllllkkkkkkjjjjjjjiiiiiiihhhhhhhhhggggggggggggfffffffffffffffffffffffffffffffffffffgggggggggggghhhhhhhhhiiiiiiijjjjjjjkkkkkklllllmmmmmnnnnnoooopppppqqqqrrrrssssttttuuuuvvvvwwwwxxxxyyyzzzz...
(PID.TID 0000.0001) //    177 z...zzzzyyyxxxxwwwwvvvvuuuuttttssssrrrrqqqqppppooooonnnnmmmmmllllllkkkkkjjjjjjiiiiiiihhhhhhhhhgggggggggggfffffffffffffffffffffffffffffffffffffffffffggggggggggghhhhhhhhhiiiiiiijjjjjjkkkkkllllllmmmmmnnnnoooooppppqqqqrrrrssssttttuuuuvvvvwwwwxxxxyyyzzzz...
(PID.TID 0000.0001) //    176 z...zzzzyyyxxxxwwwwvvvvuuuttttssssrrrrqqqqpppppoooonnnnnmmmmmlllllkkkkkjjjjjjiiiiiiihhhhhhhhggggggggggfffffffffffffffffffffffffffffffffffffffffffffffffgggggggggghhhhhhhhiiiiiiijjjjjjkkkkklllllmmmmmnnnnnoooopppppqqqqrrrrssssttttuuuvvvvwwwwxxxxyyyzzzz...
(PID.TID 0000.0001) //    175 z...zzzzyyyxxxxwwwwvvvuuuuttttssssrrrrqqqqppppooooonnnnmmmmmlllllkkkkkjjjjjjiiiiiiihhhhhhhggggggggggffffffffffffffffeeeeeeeeeeeeeeeeeeeeeffffffffffffffffgggggggggghhhhhhhiiiiiiijjjjjjkkkkklllllmmmmmnnnnoooooppppqqqqrrrrssssttttuuuuvvvwwwwxxxxyyyzzzz...
(PID.TID 0000.0001) //    174 z...zzzyyyyxxxxwwwvvvvuuuuttttssssrrrrqqqqppppoooonnnnnmmmmlllllkkkkkkjjjjjiiiiiiihhhhhhhgggggggggffffffffffffffeeeeeeeeeeeeeeeeeeeeeeeeeeeeeffffffffffffffggggggggghhhhhhhiiiiiiijjjjjkkkkkklllllmmmmnnnnnooooppppqqqqrrrrssssttttuuuuvvvvwwwxxxxyyyyzzz...
(PID.TID 0000.0001) //    173 z...zzzyyyyxxxxwwwvvvvuuuutttssssrrrrqqqqppppooooonnnnmmmmmlllllkkkkkjjjjjiiiiiiihhhhhhhggggggggffffffffffffeeeeeeeeeeeeeeeeeeeeeeeeeeeeeeeeeeeeeffffffffffffgggggggghhhhhhhiiiiiiijjjjjkkkkklllllmmmmmnnnnoooooppppqqqqrrrrsssstttuuuuvvvvwwwxxxxyyyyzzz...
(PID.TID 0000.0001) //    172 z...zzzyyyyxxxxwwwvvvvuuuttttssssrrrrqqqqppppoooonnnnmmmmmlllllkkkkkjjjjjiiiiiihhhhhhhggggggggfffffffffffeeeeeeeeeeeeeeeeeeeeeeeeeeeeeeeeeeeeeeeeeeefffffffffffgggggggghhhhhhhiiiiiijjjjjkkkkklllllmmmmmnnnnooooppppqqqqrrrrssssttttuuuvvvvwwwxxxxyyyyzzz...
(PID.TID 0000.0001) //    171 z...zzzyyyyxxxwwwwvvvvuuuttttssssrrrrqqqppppooooonnnnmmmmlllllkkkkkjjjjjjiiiiihhhhhhhggggggggffffffffffeeeeeeeeeeeeeeeeeeeeeeeeeeeeeeeeeeeeeeeeeeeeeeeffffffffffgggggggghhhhhhhiiiiijjjjjjkkkkklllllmmmmnnnnoooooppppqqqrrrrssssttttuuuvvvvwwwwxxxyyyyzzz...
(PID.TID 0000.0001) //    170 z...zzzyyyyxxxwwwwvvvuuuuttttsssrrrrqqqqppppoooonnnnmmmmmlllllkkkkjjjjjjiiiiiihhhhhhgggggggffffffffffeeeeeeeeeeeeeeeedddddddddddddddddddeeeeeeeeeeeeeeeeffffffffffggggggghhhhhhiiiiiijjjjjjkkkklllllmmmmmnnnnooooppppqqqqrrrrsssttttuuuuvvvwwwwxxxyyyyzzz...
(PID.TID 0000.0001) //    169 z...zzzyyyyxxxwwwwvvvuuuutttssssrrrrqqqqppppoooonnnnmmmmlllllkkkkkjjjjjiiiiiihhhhhhgggggggfffffffffeeeeeeeeeeeeeedddddddddddddddddddddddddddeeeeeeeeeeeeeefffffffffggggggghhhhhhiiiiiijjjjjkkkkklllllmmmmnnnnooooppppqqqqrrrrsssstttuuuuvvvwwwwxxxyyyyzzz...
(PID.TID 0000.0001) //    168 z...zzzyyyyxxxwwwwvvvuuuutttssssrrrrqqqppppoooonnnnnmmmmllllkkkkkjjjjjiiiiiihhhhhhgggggggffffffffeeeeeeeeeeeedddddddddddddddddddddddddddddddddddeeeeeeeeeeeeffffffffggggggghhhhhhiiiiiijjjjjkkkkkllllmmmmnnnnnooooppppqqqrrrrsssstttuuuuvvvwwwwxxxyyyyzzz...
(PID.TID 0000.0001) //    167 z...zzzyyyyxxxwwwvvvvuuuttttssssrrrqqqqppppoooonnnnmmmmlllllkkkkkjjjjjiiiiihhhhhhgggggggffffffffeeeeeeeeeeedddddddddddddddddddddddddddddddddddddddeeeeeeeeeeeffffffffggggggghhhhhhiiiiijjjjjkkkkklllllmmmmnnnnooooppppqqqqrrrssssttttuuuvvvvwwwxxxyyyyzzz...
(PID.TID 0000.0001) //    166 z...zzzyyyyxxxwwwvvvvuuuttttsssrrrrqqqqppppoooonnnnmmmmllllkkkkkjjjjjiiiiihhhhhhgggggggfffffffeeeeeeeeeeedddddddddddddddddddddddddddddddddddddddddddeeeeeeeeeeefffffffggggggghhhhhhiiiiijjjjjkkkkkllllmmmmnnnnooooppppqqqqrrrrsssttttuuuvvvvwwwxxxyyyyzzz...
(PID.TID 0000.0001) //    165 z...zzzyyyxxxxwwwvvvvuuuttttsssrrrrqqqqpppoooonnnnmmmmlllllkkkkjjjjjiiiiihhhhhhgggggggfffffffeeeeeeeeeeddddddddddddddddddddcccccccddddddddddddddddddddeeeeeeeeeefffffffggggggghhhhhhiiiiijjjjjkkkklllllmmmmnnnnoooopppqqqqrrrrsssttttuuuvvvvwwwxxxxyyyzzz...
(PID.TID 0000.0001) //    164 z...zzzyyyxxxxwwwvvvvuuutttssssrrrrqqqppppoooonnnnmmmmllllkkkkkjjjjjiiiiihhhhhgggggggfffffffeeeeeeeeedddddddddddddddcccccccccccccccccccccdddddddddddddddeeeeeeeeefffffffggggggghhhhhiiiiijjjjjkkkkkllllmmmmnnnnooooppppqqqrrrrsssstttuuuvvvvwwwxxxxyyyzzz...
(PID.TID 0000.0001) //    163 z...zzzyyyxxxxwwwvvvuuuutttssssrrrqqqqppppoooonnnnmmmmllllkkkkjjjjjiiiiihhhhhhggggggfffffffeeeeeeeedddddddddddddcccccccccccccccccccccccccccccdddddddddddddeeeeeeeefffffffgggggghhhhhhiiiiijjjjjkkkkllllmmmmnnnnooooppppqqqqrrrsssstttuuuuvvvwwwxxxxyyyzzz...
(PID.TID 0000.0001) //    162 z...zzzyyyxxxxwwwvvvuuuutttssssrrrqqqqpppoooonnnnmmmmllllkkkkkjjjjiiiiihhhhhhggggggfffffffeeeeeeeeddddddddddddcccccccccccccccccccccccccccccccccddddddddddddeeeeeeeefffffffgggggghhhhhhiiiiijjjjkkkkkllllmmmmnnnnoooopppqqqqrrrsssstttuuuuvvvwwwxxxxyyyzzz...
(PID.TID 0000.0001) //    161 z...zzzyyyxxxxwwwvvvuuuutttsssrrrrqqqqpppoooonnnnmmmmllllkkkkjjjjjiiiiihhhhhggggggfffffffeeeeeeeeddddddddddcccccccccccccccccccccccccccccccccccccccddddddddddeeeeeeeefffffffgggggghhhhhiiiiijjjjjkkkkllllmmmmnnnnoooopppqqqqrrrrssstttuuuuvvvwwwxxxxyyyzzz...
(PID.TID 0000.0001) //    160 z...zzzyyyxxxwwwwvvvuuuttttsssrrrrqqqppppoooonnnmmmmlllllkkkkjjjjiiiiihhhhhggggggfffffffeeeeeeedddddddddddcccccccccccccccccccccccccccccccccccccccccdddddddddddeeeeeeefffffffgggggghhhhhiiiiijjjjkkkklllllmmmmnnnooooppppqqqrrrrsssttttuuuvvvwwwwxxxyyyzzz...
(PID.TID 0000.0001) //    159 z...zzzyyyxxxwwwwvvvuuuttttsssrrrrqqqppppooonnnnmmmmllllkkkkjjjjjiiiiihhhhhgggggfffffffeeeeeeeddddddddddcccccccccccccccccccccccccccccccccccccccccccccddddddddddeeeeeeefffffffggggghhhhhiiiiijjjjjkkkkllllmmmmnnnnoooppppqqqrrrrsssttttuuuvvvwwwwxxxyyyzzz...
(PID.TID 0000.0001) //    158 z...zzzyyyxxxwwwwvvvuuutttssssrrrqqqqpppoooonnnnmmmmllllkkkkjjjjiiiiihhhhhggggggffffffeeeeeeedddddddddcccccccccccccccccbbbbbbbbbbbbbbbcccccccccccccccccdddddddddeeeeeeeffffffgggggghhhhhiiiiijjjjkkkkllllmmmmnnnnoooopppqqqqrrrsssstttuuuvvvwwwwxxxyyyzzz...
(PID.TID 0000.0001) //    157 z...zzzyyyxxxwwwvvvvuuutttssssrrrqqqqpppoooonnnnmmmllllkkkkkjjjjiiiiihhhhhgggggffffffeeeeeeedddddddddccccccccccccccbbbbbbbbbbbbbbbbbbbbbbbccccccccccccccdddddddddeeeeeeeffffffggggghhhhhiiiiijjjjkkkkkllllmmmnnnnoooopppqqqqrrrsssstttuuuvvvvwwwxxxyyyzzz...
(PID.TID 0000.0001) //    156 z...zzzyyyxxxwwwvvvvuuutttssssrrrqqqppppoooonnnmmmmllllkkkkjjjjjiiiihhhhhgggggffffffeeeeeeedddddddddccccccccccccbbbbbbbbbbbbbbbbbbbbbbbbbbbbbccccccccccccdddddddddeeeeeeeffffffggggghhhhhiiiijjjjjkkkkllllmmmmnnnooooppppqqqrrrsssstttuuuvvvvwwwxxxyyyzzz...
(PID.TID 0000.0001) //    155 z...zzzyyyxxxwwwvvvvuuutttsssrrrrqqqppppooonnnnmmmmllllkkkkjjjjiiiiihhhhhgggggffffffeeeeeeddddddddccccccccccccbbbbbbbbbbbbbbbbbbbbbbbbbbbbbbbbbccccccccccccddddddddeeeeeeffffffggggghhhhhiiiiijjjjkkkkllllmmmmnnnnoooppppqqqrrrrssstttuuuvvvvwwwxxxyyyzzz...
(PID.TID 0000.0001) //    154 z...zzzyyyxxxwwwvvvuuuutttsssrrrrqqqppppooonnnnmmmmlllkkkkkjjjjiiiihhhhhgggggffffffeeeeeeedddddddcccccccccccbbbbbbbbbbbbbbbbbbbbbbbbbbbbbbbbbbbbbcccccccccccdddddddeeeeeeeffffffggggghhhhhiiiijjjjkkkkklllmmmmnnnnoooppppqqqrrrrssstttuuuuvvvwwwxxxyyyzzz...
(PID.TID 0000.0001) //    153 z...zzzyyyxxxwwwvvvuuuutttsssrrrqqqqpppoooonnnnmmmllllkkkkjjjjiiiiihhhhhgggggfffffeeeeeeedddddddcccccccccccbbbbbbbbbbbbbbbbbbbbbbbbbbbbbbbbbbbbbbbcccccccccccdddddddeeeeeeefffffggggghhhhhiiiiijjjjkkkkllllmmmnnnnoooopppqqqqrrrssstttuuuuvvvwwwxxxyyyzzz...
(PID.TID 0000.0001) //    152 z...zzzyyyxxxwwwvvvuuuttttsssrrrqqqqpppoooonnnmmmmllllkkkkjjjjiiiiihhhhgggggffffffeeeeeedddddddccccccccccbbbbbbbbbbbbbbbbbbbbbbbbbbbbbbbbbbbbbbbbbbbccccccccccdddddddeeeeeeffffffggggghhhhiiiiijjjjkkkkllllmmmmnnnoooopppqqqqrrrsssttttuuuvvvwwwxxxyyyzzz...
(PID.TID 0000.0001) //    151 z...zzzyyyxxxwwwvvvuuuttttsssrrrqqqqpppooonnnnmmmmllllkkkkjjjjiiiihhhhhgggggfffffeeeeeeddddddddcccccccccbbbbbbbbbbbbbbbbbbbbbbbbbbbbbbbbbbbbbbbbbbbbbcccccccccddddddddeeeeeefffffggggghhhhhiiiijjjjkkkkllllmmmmnnnnooopppqqqqrrrsssttttuuuvvvwwwxxxyyyzzz...
(PID.TID 0000.0001) //    150 z...zzzyyyxxxwwwvvvuuuttttsssrrrqqqppppooonnnnmmmmlllkkkkjjjjiiiiihhhhgggggffffffeeeeeedddddddcccccccccbbbbbbbbbbbbbbbbaaaaaaaaaaaaaaabbbbbbbbbbbbbbbbcccccccccdddddddeeeeeeffffffggggghhhhiiiiijjjjkkkklllmmmmnnnnoooppppqqqrrrsssttttuuuvvvwwwxxxyyyzzz...
(PID.TID 0000.0001) //    149 z...zzzyyyxxxwwwvvvuuutttssssrrrqqqppppooonnnnmmmllllkkkkjjjjiiiihhhhhgggggfffffeeeeeedddddddcccccccccbbbbbbbbbbbbbbaaaaaaaaaaaaaaaaaaaaabbbbbbbbbbbbbbcccccccccdddddddeeeeeefffffggggghhhhhiiiijjjjkkkkllllmmmnnnnoooppppqqqrrrsssstttuuuvvvwwwxxxyyyzzz...
(PID.TID 0000.0001) //    148 z...zzzyyyxxxwwwvvvuuutttssssrrrqqqpppoooonnnmmmmllllkkkkjjjjiiiihhhhhggggffffffeeeeeeddddddcccccccccbbbbbbbbbbbbbaaaaaaaaaaaaaaaaaaaaaaaaabbbbbbbbbbbbbcccccccccddddddeeeeeeffffffgggghhhhhiiiijjjjkkkkllllmmmmnnnoooopppqqqrrrsssstttuuuvvvwwwxxxyyyzzz...
(PID.TID 0000.0001) //    147 z...zzzyyyxxxwwwvvvuuutttsssrrrrqqqpppoooonnnmmmmllllkkkkjjjjiiiihhhhgggggfffffeeeeeedddddddccccccccbbbbbbbbbbbbaaaaaaaaaaaaaaaaaaaaaaaaaaaaabbbbbbbbbbbbccccccccdddddddeeeeeefffffggggghhhhiiiijjjjkkkkllllmmmmnnnoooopppqqqrrrrssstttuuuvvvwwwxxxyyyzzz...
(PID.TID 0000.0001) //    146 z...zzzyyyxxxwwwvvvuuutttsssrrrrqqqpppoooonnnmmmmlllkkkkjjjjiiiiihhhhgggggfffffeeeeeeddddddccccccccbbbbbbbbbbbaaaaaaaaaaaaaaaaaaaaaaaaaaaaaaaaabbbbbbbbbbbccccccccddddddeeeeeefffffggggghhhhiiiiijjjjkkkklllmmmmnnnoooopppqqqrrrrssstttuuuvvvwwwxxxyyyzzz...
(PID.TID 0000.0001) //    145 z...zzzyyyxxxwwwvvvuuutttsssrrrqqqqpppooonnnnmmmmlllkkkkjjjjiiiihhhhhggggfffffeeeeeedddddddcccccccbbbbbbbbbbbaaaaaaaaaaaaaaaaaaaaaaaaaaaaaaaaaaabbbbbbbbbbbcccccccdddddddeeeeeefffffgggghhhhhiiiijjjjkkkklllmmmmnnnnooopppqqqqrrrssstttuuuvvvwwwxxxyyyzzz...
(PID.TID 0000.0001) //    144 z...zzzyyyxxxwwwvvvuuutttsssrrrqqqqpppooonnnnmmmllllkkkkjjjjiiiihhhhgggggfffffeeeeeeddddddccccccccbbbbbbbbbbaaaaaaaaaaaaaaaaaaaaaaaaaaaaaaaaaaaaabbbbbbbbbbccccccccddddddeeeeeefffffggggghhhhiiiijjjjkkkkllllmmmnnnnooopppqqqqrrrssstttuuuvvvwwwxxxyyyzzz...
(PID.TID 0000.0001) //    143 z...zzzyyyxxxwwwvvvuuutttsssrrrqqqqpppooonnnnmmmllllkkkkjjjjiiiihhhhgggggfffffeeeeeddddddccccccccbbbbbbbbbbaaaaaaaaaaaaaaaaaaaaaaaaaaaaaaaaaaaaaaabbbbbbbbbbccccccccddddddeeeeefffffggggghhhhiiiijjjjkkkkllllmmmnnnnooopppqqqqrrrssstttuuuvvvwwwxxxyyyzzz...
(PID.TID 0000.0001) //    142 z...zzzyyyxxxwwwvvvuuutttsssrrrqqqppppooonnnnmmmllllkkkjjjjiiiihhhhhggggfffffeeeeeeddddddcccccccbbbbbbbbbbaaaaaaaaaaaaaaaaaaaaaaaaaaaaaaaaaaaaaaaaabbbbbbbbbbcccccccddddddeeeeeefffffgggghhhhhiiiijjjjkkkllllmmmnnnnoooppppqqqrrrssstttuuuvvvwwwxxxyyyzzz...
(PID.TID 0000.0001) //    141 z...zzzyyyxxxwwwvvvuuutttsssrrrqqqppppooonnnmmmmllllkkkjjjjiiiihhhhhggggfffffeeeeedddddddcccccccbbbbbbbbbaaaaaaaaaaaaaaaaaaaaaaaaaaaaaaaaaaaaaaaaaaabbbbbbbbbcccccccdddddddeeeeefffffgggghhhhhiiiijjjjkkkllllmmmmnnnoooppppqqqrrrssstttuuuvvvwwwxxxyyyzzz...
(PID.TID 0000.0001) //    140 z...zzzyyyxxxwwwvvvuuutttsssrrrqqqpppoooonnnmmmmlllkkkkjjjjiiiihhhhgggggfffffeeeeeddddddcccccccbbbbbbbbbaaaaaaaaaaaaaaaaaaaaaaaaaaaaaaaaaaaaaaaaaaaaabbbbbbbbbcccccccddddddeeeeefffffggggghhhhiiiijjjjkkkklllmmmmnnnoooopppqqqrrrssstttuuuvvvwwwxxxyyyzzz...
(PID.TID 0000.0001) //    139 z...zzzyyxxxwwwvvvvuuutttsssrrrqqqpppoooonnnmmmmlllkkkkjjjjiiiihhhhgggggfffffeeeeeddddddcccccccbbbbbbbbbaaaaaaaaaaaaaaaaa-----------aaaaaaaaaaaaaaaaabbbbbbbbbcccccccddddddeeeeefffffggggghhhhiiiijjjjkkkklllmmmmnnnoooopppqqqrrrssstttuuuvvvvwwwxxxyyzzz...
(PID.TID 0000.0001) //    138 z...zzyyyxxxwwwvvvuuuutttsssrrrqqqpppoooonnnmmmmlllkkkkjjjjiiiihhhhggggfffffeeeeeedddddcccccccbbbbbbbbbaaaaaaaaaaaaaaaa---------------aaaaaaaaaaaaaaaabbbbbbbbbcccccccdddddeeeeeefffffgggghhhhiiiijjjjkkkklllmmmmnnnoooopppqqqrrrssstttuuuuvvvwwwxxxyyyzz...
(PID.TID 0000.0001) //    137 z...zzyyyxxxwwwvvvuuuttttsssrrrqqqpppoooonnnmmmllllkkkkjjjjiiiihhhhggggfffffeeeeeddddddcccccccbbbbbbbbbaaaaaaaaaaaaaa-------------------aaaaaaaaaaaaaabbbbbbbbbcccccccddddddeeeeefffffgggghhhhiiiijjjjkkkkllllmmmnnnoooopppqqqrrrsssttttuuuvvvwwwxxxyyyzz...
(PID.TID 0000.0001) //    136 z...zzyyyxxxwwwvvvuuutttssssrrrqqqpppooonnnnmmmllllkkkkjjjiiiihhhhhggggfffffeeeeeddddddcccccccbbbbbbbbaaaaaaaaaaaaaa---------------------aaaaaaaaaaaaaabbbbbbbbcccccccddddddeeeeefffffgggghhhhhiiiijjjkkkkllllmmmnnnnooopppqqqrrrsssstttuuuvvvwwwxxxyyyzz...
(PID.TID 0000.0001) //    135 z...zzyyyxxxwwwvvvuuutttssssrrrqqqpppooonnnnmmmllllkkkjjjjiiiihhhhgggggfffffeeeeeddddddccccccbbbbbbbbbaaaaaaaaaaaaa-----------------------aaaaaaaaaaaaabbbbbbbbbccccccddddddeeeeefffffggggghhhhiiiijjjjkkkllllmmmnnnnooopppqqqrrrsssstttuuuvvvwwwxxxyyyzz...
(PID.TID 0000.0001) //    134 z...zzyyyxxxwwwvvvuuutttssssrrrqqqpppooonnnnmmmllllkkkjjjjiiiihhhhgggggffffeeeeeedddddcccccccbbbbbbbbaaaaaaaaaaaaa-------------------------aaaaaaaaaaaaabbbbbbbbcccccccdddddeeeeeeffffggggghhhhiiiijjjjkkkllllmmmnnnnooopppqqqrrrsssstttuuuvvvwwwxxxyyyzz...
(PID.TID 0000.0001) //    133 z...zzyyyxxxwwwvvvuuutttsssrrrrqqqpppooonnnnmmmllllkkkjjjjiiiihhhhgggggffffeeeeeddddddcccccccbbbbbbbbaaaaaaaaaaaa---------------------------aaaaaaaaaaaabbbbbbbbcccccccddddddeeeeeffffggggghhhhiiiijjjjkkkllllmmmnnnnooopppqqqrrrrssstttuuuvvvwwwxxxyyyzz...
(PID.TID 0000.0001) //    132 z...zzyyyxxxwwwvvvuuutttsssrrrrqqqpppooonnnnmmmllllkkkjjjjiiiihhhhggggfffffeeeeeddddddcccccccbbbbbbbbaaaaaaaaaaaa---------------------------aaaaaaaaaaaabbbbbbbbcccccccddddddeeeeefffffgggghhhhiiiijjjjkkkllllmmmnnnnooopppqqqrrrrssstttuuuvvvwwwxxxyyyzz...
(PID.TID 0000.0001) //    131 z...zzyyyxxxwwwvvvuuutttsssrrrrqqqpppooonnnnmmmlllkkkkjjjjiiiihhhhggggfffffeeeeeddddddccccccbbbbbbbbaaaaaaaaaaaa-----------------------------aaaaaaaaaaaabbbbbbbbccccccddddddeeeeefffffgggghhhhiiiijjjjkkkklllmmmnnnnooopppqqqrrrrssstttuuuvvvwwwxxxyyyzz...
(PID.TID 0000.0001) //    130 z...zzyyyxxxwwwvvvuuutttsssrrrqqqqpppooonnnmmmmlllkkkkjjjjiiiihhhhggggfffffeeeeeddddddccccccbbbbbbbbaaaaaaaaaaaa-----------------------------aaaaaaaaaaaabbbbbbbbccccccddddddeeeeefffffgggghhhhiiiijjjjkkkklllmmmmnnnooopppqqqqrrrssstttuuuvvvwwwxxxyyyzz...
(PID.TID 0000.0001) //    129 z...zzyyyxxxwwwvvvuuutttsssrrrqqqqpppooonnnmmmmlllkkkkjjjjiiiihhhhggggfffffeeeeeddddddccccccbbbbbbbbaaaaaaaaaaa-------------------------------aaaaaaaaaaabbbbbbbbccccccddddddeeeeefffffgggghhhhiiiijjjjkkkklllmmmmnnnooopppqqqqrrrssstttuuuvvvwwwxxxyyyzz...
(PID.TID 0000.0001) //    128 z...zzyyyxxxwwwvvvuuutttsssrrrqqqqpppooonnnmmmmlllkkkkjjjjiiiihhhhggggfffffeeeeeddddddccccccbbbbbbbbaaaaaaaaaaa-------------------------------aaaaaaaaaaabbbbbbbbccccccddddddeeeeefffffgggghhhhiiiijjjjkkkklllmmmmnnnooopppqqqqrrrssstttuuuvvvwwwxxxyyyzz...
(PID.TID 0000.0001) //    127 z...zzyyyxxxwwwvvvuuutttsssrrrqqqqpppooonnnmmmmlllkkkkjjjjiiiihhhhggggfffffeeeeedddddcccccccbbbbbbbbaaaaaaaaaaa-------------------------------aaaaaaaaaaabbbbbbbbcccccccdddddeeeeefffffgggghhhhiiiijjjjkkkklllmmmmnnnooopppqqqqrrrssstttuuuvvvwwwxxxyyyzz...
(PID.TID 0000.0001) //    126 z...zzyyyxxxwwwvvvuuutttsssrrrqqqqpppooonnnmmmmlllkkkkjjjjiiiihhhhggggfffffeeeeedddddcccccccbbbbbbbbaaaaaaaaaaa-------------------------------aaaaaaaaaaabbbbbbbbcccccccdddddeeeeefffffgggghhhhiiiijjjjkkkklllmmmmnnnooopppqqqqrrrssstttuuuvvvwwwxxxyyyzz...
(PID.TID 0000.0001) //    125 z...zzyyyxxxwwwvvvuuutttsssrrrqqqqpppooonnnmmmmlllkkkkjjjjiiiihhhhggggfffffeeeeedddddcccccccbbbbbbbbaaaaaaaaaaa-------------------------------aaaaaaaaaaabbbbbbbbcccccccdddddeeeeefffffgggghhhhiiiijjjjkkkklllmmmmnnnooopppqqqqrrrssstttuuuvvvwwwxxxyyyzz...
(PID.TID 0000.0001) //    124 z...zzyyyxxxwwwvvvuuutttsssrrrqqqqpppooonnnmmmmlllkkkkjjjjiiiihhhhggggfffffeeeeedddddcccccccbbbbbbbbaaaaaaaaaaa-------------------------------aaaaaaaaaaabbbbbbbbcccccccdddddeeeeefffffgggghhhhiiiijjjjkkkklllmmmmnnnooopppqqqqrrrssstttuuuvvvwwwxxxyyyzz...
(PID.TID 0000.0001) //    123 z...zzyyyxxxwwwvvvuuutttsssrrrqqqqpppooonnnmmmmlllkkkkjjjjiiiihhhhggggfffffeeeeedddddcccccccbbbbbbbbaaaaaaaaaaa-------------------------------aaaaaaaaaaabbbbbbbbcccccccdddddeeeeefffffgggghhhhiiiijjjjkkkklllmmmmnnnooopppqqqqrrrssstttuuuvvvwwwxxxyyyzz...
(PID.TID 0000.0001) //    122 z...zzyyyxxxwwwvvvuuutttsssrrrqqqqpppooonnnmmmmlllkkkkjjjjiiiihhhhggggfffffeeeeedddddcccccccbbbbbbbbaaaaaaaaaaa-------------------------------aaaaaaaaaaabbbbbbbbcccccccdddddeeeeefffffgggghhhhiiiijjjjkkkklllmmmmnnnooopppqqqqrrrssstttuuuvvvwwwxxxyyyzz...
(PID.TID 0000.0001) //    121 z...zzyyyxxxwwwvvvuuutttsssrrrqqqqpppooonnnmmmmlllkkkkjjjjiiiihhhhggggfffffeeeeeddddddccccccbbbbbbbbaaaaaaaaaaa-------------------------------aaaaaaaaaaabbbbbbbbccccccddddddeeeeefffffgggghhhhiiiijjjjkkkklllmmmmnnnooopppqqqqrrrssstttuuuvvvwwwxxxyyyzz...
(PID.TID 0000.0001) //    120 z...zzyyyxxxwwwvvvuuutttsssrrrqqqqpppooonnnmmmmlllkkkkjjjjiiiihhhhggggfffffeeeeeddddddccccccbbbbbbbbaaaaaaaaaaa-------------------------------aaaaaaaaaaabbbbbbbbccccccddddddeeeeefffffgggghhhhiiiijjjjkkkklllmmmmnnnooopppqqqqrrrssstttuuuvvvwwwxxxyyyzz...
(PID.TID 0000.0001) //    119 z...zzyyyxxxwwwvvvuuutttsssrrrqqqqpppooonnnmmmmlllkkkkjjjjiiiihhhhggggfffffeeeeeddddddccccccbbbbbbbbaaaaaaaaaaaa-----------------------------aaaaaaaaaaaabbbbbbbbccccccddddddeeeeefffffgggghhhhiiiijjjjkkkklllmmmmnnnooopppqqqqrrrssstttuuuvvvwwwxxxyyyzz...
(PID.TID 0000.0001) //    118 z...zzyyyxxxwwwvvvuuutttsssrrrrqqqpppooonnnnmmmlllkkkkjjjjiiiihhhhggggfffffeeeeeddddddccccccbbbbbbbbaaaaaaaaaaaa-----------------------------aaaaaaaaaaaabbbbbbbbccccccddddddeeeeefffffgggghhhhiiiijjjjkkkklllmmmnnnnooopppqqqrrrrssstttuuuvvvwwwxxxyyyzz...
(PID.TID 0000.0001) //    117 z...zzyyyxxxwwwvvvuuutttsssrrrrqqqpppooonnnnmmmllllkkkjjjjiiiihhhhggggfffffeeeeeddddddcccccccbbbbbbbbaaaaaaaaaaaa---------------------------aaaaaaaaaaaabbbbbbbbcccccccddddddeeeeefffffgggghhhhiiiijjjjkkkllllmmmnnnnooopppqqqrrrrssstttuuuvvvwwwxxxyyyzz...
(PID.TID 0000.0001) //    116 z...zzyyyxxxwwwvvvuuutttsssrrrrqqqpppooonnnnmmmllllkkkjjjjiiiihhhhgggggffffeeeeeddddddcccccccbbbbbbbbaaaaaaaaaaaa---------------------------aaaaaaaaaaaabbbbbbbbcccccccddddddeeeeeffffggggghhhhiiiijjjjkkkllllmmmnnnnooopppqqqrrrrssstttuuuvvvwwwxxxyyyzz...
(PID.TID 0000.0001) //    115 z...zzyyyxxxwwwvvvuuutttssssrrrqqqpppooonnnnmmmllllkkkjjjjiiiihhhhgggggffffeeeeeedddddcccccccbbbbbbbbaaaaaaaaaaaaa-------------------------aaaaaaaaaaaaabbbbbbbbcccccccdddddeeeeeeffffggggghhhhiiiijjjjkkkllllmmmnnnnooopppqqqrrrsssstttuuuvvvwwwxxxyyyzz...
(PID.TID 0000.0001) //    114 z...zzyyyxxxwwwvvvuuutttssssrrrqqqpppooonnnnmmmllllkkkjjjjiiiihhhhgggggfffffeeeeeddddddccccccbbbbbbbbbaaaaaaaaaaaaa-----------------------aaaaaaaaaaaaabbbbbbbbbccccccddddddeeeeefffffggggghhhhiiiijjjjkkkllllmmmnnnnooopppqqqrrrsssstttuuuvvvwwwxxxyyyzz...
(PID.TID 0000.0001) //    113 z...zzyyyxxxwwwvvvuuutttssssrrrqqqpppooonnnnmmmllllkkkkjjjiiiihhhhhggggfffffeeeeeddddddcccccccbbbbbbbbaaaaaaaaaaaaaa---------------------aaaaaaaaaaaaaabbbbbbbbcccccccddddddeeeeefffffgggghhhhhiiiijjjkkkkllllmmmnnnnooopppqqqrrrsssstttuuuvvvwwwxxxyyyzz...
(PID.TID 0000.0001) //    112 z...zzyyyxxxwwwvvvuuuttttsssrrrqqqpppoooonnnmmmllllkkkkjjjjiiiihhhhggggfffffeeeeeddddddcccccccbbbbbbbbbaaaaaaaaaaaaaa-------------------aaaaaaaaaaaaaabbbbbbbbbcccccccddddddeeeeefffffgggghhhhiiiijjjjkkkkllllmmmnnnoooopppqqqrrrsssttttuuuvvvwwwxxxyyyzz...
(PID.TID 0000.0001) //    111 z...zzyyyxxxwwwvvvuuuutttsssrrrqqqpppoooonnnmmmmlllkkkkjjjjiiiihhhhggggfffffeeeeeedddddcccccccbbbbbbbbbaaaaaaaaaaaaaaaa---------------aaaaaaaaaaaaaaaabbbbbbbbbcccccccdddddeeeeeefffffgggghhhhiiiijjjjkkkklllmmmmnnnoooopppqqqrrrssstttuuuuvvvwwwxxxyyyzz...
(PID.TID 0000.0001) //    110 z...zzzyyxxxwwwvvvvuuutttsssrrrqqqpppoooonnnmmmmlllkkkkjjjjiiiihhhhgggggfffffeeeeeddddddcccccccbbbbbbbbbaaaaaaaaaaaaaaaaa-----------aaaaaaaaaaaaaaaaabbbbbbbbbcccccccddddddeeeeefffffggggghhhhiiiijjjjkkkklllmmmmnnnoooopppqqqrrrssstttuuuvvvvwwwxxxyyzzz...
(PID.TID 0000.0001) //    109 z...zzzyyyxxxwwwvvvuuutttsssrrrqqqpppoooonnnmmmmlllkkkkjjjjiiiihhhhgggggfffffeeeeeddddddcccccccbbbbbbbbbaaaaaaaaaaaaaaaaaaaaaaaaaaaaaaaaaaaaaaaaaaaaabbbbbbbbbcccccccddddddeeeeefffffggggghhhhiiiijjjjkkkklllmmmmnnnoooopppqqqrrrssstttuuuvvvwwwxxxyyyzzz...
(PID.TID 0000.0001) //    108 z...zzzyyyxxxwwwvvvuuutttsssrrrqqqppppooonnnmmmmllllkkkjjjjiiiihhhhhggggfffffeeeeedddddddcccccccbbbbbbbbbaaaaaaaaaaaaaaaaaaaaaaaaaaaaaaaaaaaaaaaaaaabbbbbbbbbcccccccdddddddeeeeefffffgggghhhhhiiiijjjjkkkllllmmmmnnnoooppppqqqrrrssstttuuuvvvwwwxxxyyyzzz...
(PID.TID 0000.0001) //    107 z...zzzyyyxxxwwwvvvuuutttsssrrrqqqppppooonnnnmmmllllkkkjjjjiiiihhhhhggggfffffeeeeeeddddddcccccccbbbbbbbbbbaaaaaaaaaaaaaaaaaaaaaaaaaaaaaaaaaaaaaaaaabbbbbbbbbbcccccccddddddeeeeeefffffgggghhhhhiiiijjjjkkkllllmmmnnnnoooppppqqqrrrssstttuuuvvvwwwxxxyyyzzz...
(PID.TID 0000.0001) //    106 z...zzzyyyxxxwwwvvvuuutttsssrrrqqqqpppooonnnnmmmllllkkkkjjjjiiiihhhhgggggfffffeeeeeddddddccccccccbbbbbbbbbbaaaaaaaaaaaaaaaaaaaaaaaaaaaaaaaaaaaaaaabbbbbbbbbbccccccccddddddeeeeefffffggggghhhhiiiijjjjkkkkllllmmmnnnnooopppqqqqrrrssstttuuuvvvwwwxxxyyyzzz...
(PID.TID 0000.0001) //    105 z...zzzyyyxxxwwwvvvuuutttsssrrrqqqqpppooonnnnmmmllllkkkkjjjjiiiihhhhgggggfffffeeeeeeddddddccccccccbbbbbbbbbbaaaaaaaaaaaaaaaaaaaaaaaaaaaaaaaaaaaaabbbbbbbbbbccccccccddddddeeeeeefffffggggghhhhiiiijjjjkkkkllllmmmnnnnooopppqqqqrrrssstttuuuvvvwwwxxxyyyzzz...
(PID.TID 0000.0001) //    104 z...zzzyyyxxxwwwvvvuuutttsssrrrqqqqpppooonnnnmmmmlllkkkkjjjjiiiihhhhhggggfffffeeeeeedddddddcccccccbbbbbbbbbbbaaaaaaaaaaaaaaaaaaaaaaaaaaaaaaaaaaabbbbbbbbbbbcccccccdddddddeeeeeefffffgggghhhhhiiiijjjjkkkklllmmmmnnnnooopppqqqqrrrssstttuuuvvvwwwxxxyyyzzz...
(PID.TID 0000.0001) //    103 z...zzzyyyxxxwwwvvvuuutttsssrrrrqqqpppoooonnnmmmmlllkkkkjjjjiiiiihhhhgggggfffffeeeeeeddddddccccccccbbbbbbbbbbbaaaaaaaaaaaaaaaaaaaaaaaaaaaaaaaaabbbbbbbbbbbccccccccddddddeeeeeefffffggggghhhhiiiiijjjjkkkklllmmmmnnnoooopppqqqrrrrssstttuuuvvvwwwxxxyyyzzz...
(PID.TID 0000.0001) //    102 z...zzzyyyxxxwwwvvvuuutttsssrrrrqqqpppoooonnnmmmmllllkkkkjjjjiiiihhhhgggggfffffeeeeeedddddddccccccccbbbbbbbbbbbbaaaaaaaaaaaaaaaaaaaaaaaaaaaaabbbbbbbbbbbbccccccccdddddddeeeeeefffffggggghhhhiiiijjjjkkkkllllmmmmnnnoooopppqqqrrrrssstttuuuvvvwwwxxxyyyzzz...
(PID.TID 0000.0001) //    101 z...zzzyyyxxxwwwvvvuuutttssssrrrqqqpppoooonnnmmmmllllkkkkjjjjiiiihhhhhggggffffffeeeeeeddddddcccccccccbbbbbbbbbbbbbaaaaaaaaaaaaaaaaaaaaaaaaabbbbbbbbbbbbbcccccccccddddddeeeeeeffffffgggghhhhhiiiijjjjkkkkllllmmmmnnnoooopppqqqrrrsssstttuuuvvvwwwxxxyyyzzz...
(PID.TID 0000.0001) //    100 z...zzzyyyxxxwwwvvvuuutttssssrrrqqqppppooonnnnmmmllllkkkkjjjjiiiihhhhhgggggfffffeeeeeedddddddcccccccccbbbbbbbbbbbbbbaaaaaaaaaaaaaaaaaaaaabbbbbbbbbbbbbbcccccccccdddddddeeeeeefffffggggghhhhhiiiijjjjkkkkllllmmmnnnnoooppppqqqrrrsssstttuuuvvvwwwxxxyyyzzz...
(PID.TID 0000.0001) //     99 z...zzzyyyxxxwwwvvvuuuttttsssrrrqqqppppooonnnnmmmmlllkkkkjjjjiiiiihhhhgggggffffffeeeeeedddddddcccccccccbbbbbbbbbbbbbbbbaaaaaaaaaaaaaaabbbbbbbbbbbbbbbbcccccccccdddddddeeeeeeffffffggggghhhhiiiiijjjjkkkklllmmmmnnnnoooppppqqqrrrsssttttuuuvvvwwwxxxyyyzzz...
(PID.TID 0000.0001) //     98 z...zzzyyyxxxwwwvvvuuuttttsssrrrqqqqpppooonnnnmmmmllllkkkkjjjjiiiihhhhhgggggfffffeeeeeeddddddddcccccccccbbbbbbbbbbbbbbbbbbbbbbbbbbbbbbbbbbbbbbbbbbbbbcccccccccddddddddeeeeeefffffggggghhhhhiiiijjjjkkkkllllmmmmnnnnooopppqqqqrrrsssttttuuuvvvwwwxxxyyyzzz...
(PID.TID 0000.0001) //     97 z...zzzyyyxxxwwwvvvuuuttttsssrrrqqqqpppoooonnnmmmmllllkkkkjjjjiiiiihhhhgggggffffffeeeeeedddddddccccccccccbbbbbbbbbbbbbbbbbbbbbbbbbbbbbbbbbbbbbbbbbbbccccccccccdddddddeeeeeeffffffggggghhhhiiiiijjjjkkkkllllmmmmnnnoooopppqqqqrrrsssttttuuuvvvwwwxxxyyyzzz...
(PID.TID 0000.0001) //     96 z...zzzyyyxxxwwwvvvuuuutttsssrrrqqqqpppoooonnnnmmmllllkkkkjjjjiiiiihhhhhgggggfffffeeeeeeedddddddcccccccccccbbbbbbbbbbbbbbbbbbbbbbbbbbbbbbbbbbbbbbbcccccccccccdddddddeeeeeeefffffggggghhhhhiiiiijjjjkkkkllllmmmnnnnoooopppqqqqrrrssstttuuuuvvvwwwxxxyyyzzz...
(PID.TID 0000.0001) //     95 z...zzzyyyxxxwwwvvvuuuutttsssrrrrqqqppppooonnnnmmmmlllkkkkkjjjjiiiihhhhhgggggffffffeeeeeeedddddddcccccccccccbbbbbbbbbbbbbbbbbbbbbbbbbbbbbbbbbbbbbcccccccccccdddddddeeeeeeeffffffggggghhhhhiiiijjjjkkkkklllmmmmnnnnoooppppqqqrrrrssstttuuuuvvvwwwxxxyyyzzz...
(PID.TID 0000.0001) //     94 z...zzzyyyxxxwwwvvvvuuutttsssrrrrqqqppppooonnnnmmmmllllkkkkjjjjiiiiihhhhhgggggffffffeeeeeeddddddddccccccccccccbbbbbbbbbbbbbbbbbbbbbbbbbbbbbbbbbccccccccccccddddddddeeeeeeffffffggggghhhhhiiiiijjjjkkkkllllmmmmnnnnoooppppqqqrrrrssstttuuuvvvvwwwxxxyyyzzz...
(PID.TID 0000.0001) //     93 z...zzzyyyxxxwwwvvvvuuutttssssrrrqqqppppoooonnnmmmmllllkkkkjjjjjiiiihhhhhgggggffffffeeeeeeedddddddddccccccccccccbbbbbbbbbbbbbbbbbbbbbbbbbbbbbccccccccccccdddddddddeeeeeeeffffffggggghhhhhiiiijjjjjkkkkllllmmmmnnnooooppppqqqrrrsssstttuuuvvvvwwwxxxyyyzzz...
(PID.TID 0000.0001) //     92 z...zzzyyyxxxwwwvvvvuuutttssssrrrqqqqpppoooonnnnmmmllllkkkkkjjjjiiiiihhhhhgggggffffffeeeeeeedddddddddccccccccccccccbbbbbbbbbbbbbbbbbbbbbbbccccccccccccccdddddddddeeeeeeeffffffggggghhhhhiiiiijjjjkkkkkllllmmmnnnnoooopppqqqqrrrsssstttuuuvvvvwwwxxxyyyzzz...
(PID.TID 0000.0001) //     91 z...zzzyyyxxxwwwwvvvuuutttssssrrrqqqqpppoooonnnnmmmmllllkkkkjjjjiiiiihhhhhggggggffffffeeeeeeedddddddddcccccccccccccccccbbbbbbbbbbbbbbbcccccccccccccccccdddddddddeeeeeeeffffffgggggghhhhhiiiiijjjjkkkkllllmmmmnnnnoooopppqqqqrrrsssstttuuuvvvwwwwxxxyyyzzz...
(PID.TID 0000.0001) //     90 z...zzzyyyxxxwwwwvvvuuuttttsssrrrrqqqppppooonnnnmmmmllllkkkkjjjjjiiiiihhhhhgggggfffffffeeeeeeeddddddddddcccccccccccccccccccccccccccccccccccccccccccccddddddddddeeeeeeefffffffggggghhhhhiiiiijjjjjkkkkllllmmmmnnnnoooppppqqqrrrrsssttttuuuvvvwwwwxxxyyyzzz...
(PID.TID 0000.0001) //     89 z...zzzyyyxxxwwwwvvvuuuttttsssrrrrqqqppppoooonnnmmmmlllllkkkkjjjjiiiiihhhhhggggggfffffffeeeeeeedddddddddddcccccccccccccccccccccccccccccccccccccccccdddddddddddeeeeeeefffffffgggggghhhhhiiiiijjjjkkkklllllmmmmnnnooooppppqqqrrrrsssttttuuuvvvwwwwxxxyyyzzz...
(PID.TID 0000.0001) //     88 z...zzzyyyxxxxwwwvvvuuuutttsssrrrrqqqqpppoooonnnnmmmmllllkkkkjjjjjiiiiihhhhhggggggfffffffeeeeeeeeddddddddddcccccccccccccccccccccccccccccccccccccccddddddddddeeeeeeeefffffffgggggghhhhhiiiiijjjjjkkkkllllmmmmnnnnoooopppqqqqrrrrssstttuuuuvvvwwwxxxxyyyzzz...
(PID.TID 0000.0001) //     87 z...zzzyyyxxxxwwwvvvuuuutttssssrrrqqqqpppoooonnnnmmmmllllkkkkkjjjjiiiiihhhhhhggggggfffffffeeeeeeeeddddddddddddcccccccccccccccccccccccccccccccccddddddddddddeeeeeeeefffffffgggggghhhhhhiiiiijjjjkkkkkllllmmmmnnnnoooopppqqqqrrrsssstttuuuuvvvwwwxxxxyyyzzz...
(PID.TID 0000.0001) //     86 z...zzzyyyxxxxwwwvvvuuuutttssssrrrqqqqppppoooonnnnmmmmllllkkkkjjjjjiiiiihhhhhhggggggfffffffeeeeeeeedddddddddddddcccccccccccccccccccccccccccccdddddddddddddeeeeeeeefffffffgggggghhhhhhiiiiijjjjjkkkkllllmmmmnnnnooooppppqqqqrrrsssstttuuuuvvvwwwxxxxyyyzzz...
(PID.TID 0000.0001) //     85 z...zzzyyyxxxxwwwvvvvuuutttssssrrrrqqqppppoooonnnnmmmmllllkkkkkjjjjjiiiiihhhhhgggggggfffffffeeeeeeeeedddddddddddddddcccccccccccccccccccccdddddddddddddddeeeeeeeeefffffffggggggghhhhhiiiiijjjjjkkkkkllllmmmmnnnnooooppppqqqrrrrsssstttuuuvvvvwwwxxxxyyyzzz...
(PID.TID 0000.0001) //     84 z...zzzyyyxxxxwwwvvvvuuuttttsssrrrrqqqqpppoooonnnnmmmmlllllkkkkjjjjjiiiiihhhhhhgggggggfffffffeeeeeeeeeeddddddddddddddddddddcccccccddddddddddddddddddddeeeeeeeeeefffffffggggggghhhhhhiiiiijjjjjkkkklllllmmmmnnnnoooopppqqqqrrrrsssttttuuuvvvvwwwxxxxyyyzzz...
(PID.TID 0000.0001) //     83 z...zzzyyyyxxxwwwvvvvuuuttttsssrrrrqqqqppppoooonnnnmmmmllllkkkkkjjjjjiiiiihhhhhhgggggggfffffffeeeeeeeeeeedddddddddddddddddddddddddddddddddddddddddddeeeeeeeeeeefffffffggggggghhhhhhiiiiijjjjjkkkkkllllmmmmnnnnooooppppqqqqrrrrsssttttuuuvvvvwwwxxxyyyyzzz...
(PID.TID 0000.0001) //     82 z...zzzyyyyxxxwwwvvvvuuuttttssssrrrqqqqppppoooonnnnmmmmlllllkkkkkjjjjjiiiiihhhhhhgggggggffffffffeeeeeeeeeeedddddddddddddddddddddddddddddddddddddddeeeeeeeeeeeffffffffggggggghhhhhhiiiiijjjjjkkkkklllllmmmmnnnnooooppppqqqqrrrssssttttuuuvvvvwwwxxxyyyyzzz...
(PID.TID 0000.0001) //     81 z...zzzyyyyxxxwwwwvvvuuuutttssssrrrrqqqppppoooonnnnnmmmmllllkkkkkjjjjjiiiiiihhhhhhgggggggffffffffeeeeeeeeeeeedddddddddddddddddddddddddddddddddddeeeeeeeeeeeeffffffffggggggghhhhhhiiiiiijjjjjkkkkkllllmmmmnnnnnooooppppqqqrrrrsssstttuuuuvvvwwwwxxxyyyyzzz...
(PID.TID 0000.0001) //     80 z...zzzyyyyxxxwwwwvvvuuuutttssssrrrrqqqqppppoooonnnnmmmmlllllkkkkkjjjjjiiiiiihhhhhhgggggggfffffffffeeeeeeeeeeeeeedddddddddddddddddddddddddddeeeeeeeeeeeeeefffffffffggggggghhhhhhiiiiiijjjjjkkkkklllllmmmmnnnnooooppppqqqqrrrrsssstttuuuuvvvwwwwxxxyyyyzzz...
(PID.TID 0000.0001) //     79 z...zzzyyyyxxxwwwwvvvuuuuttttsssrrrrqqqqppppoooonnnnmmmmmlllllkkkkjjjjjjiiiiiihhhhhhgggggggffffffffffeeeeeeeeeeeeeeeedddddddddddddddddddeeeeeeeeeeeeeeeeffffffffffggggggghhhhhhiiiiiijjjjjjkkkklllllmmmmmnnnnooooppppqqqqrrrrsssttttuuuuvvvwwwwxxxyyyyzzz...
(PID.TID 0000.0001) //     78 z...zzzyyyyxxxwwwwvvvvuuuttttssssrrrrqqqppppooooonnnnmmmmlllllkkkkkjjjjjjiiiiihhhhhhhggggggggffffffffffeeeeeeeeeeeeeeeeeeeeeeeeeeeeeeeeeeeeeeeeeeeeeeeffffffffffgggggggghhhhhhhiiiiijjjjjjkkkkklllllmmmmnnnnoooooppppqqqrrrrssssttttuuuvvvvwwwwxxxyyyyzzz...
(PID.TID 0000.0001) //     77 z...zzzyyyyxxxxwwwvvvvuuuttttssssrrrrqqqqppppoooonnnnmmmmmlllllkkkkkjjjjjiiiiiihhhhhhhggggggggfffffffffffeeeeeeeeeeeeeeeeeeeeeeeeeeeeeeeeeeeeeeeeeeefffffffffffgggggggghhhhhhhiiiiiijjjjjkkkkklllllmmmmmnnnnooooppppqqqqrrrrssssttttuuuvvvvwwwxxxxyyyyzzz...
(PID.TID 0000.0001) //     76 z...zzzyyyyxxxxwwwvvvvuuuutttssssrrrrqqqqppppooooonnnnmmmmmlllllkkkkkjjjjjiiiiiiihhhhhhhggggggggffffffffffffeeeeeeeeeeeeeeeeeeeeeeeeeeeeeeeeeeeeeffffffffffffgggggggghhhhhhhiiiiiiijjjjjkkkkklllllmmmmmnnnnoooooppppqqqqrrrrsssstttuuuuvvvvwwwxxxxyyyyzzz...
(PID.TID 0000.0001) //     75 z...zzzyyyyxxxxwwwvvvvuuuuttttssssrrrrqqqqppppoooonnnnnmmmmlllllkkkkkkjjjjjiiiiiiihhhhhhhgggggggggffffffffffffffeeeeeeeeeeeeeeeeeeeeeeeeeeeeeffffffffffffffggggggggghhhhhhhiiiiiiijjjjjkkkkkklllllmmmmnnnnnooooppppqqqqrrrrssssttttuuuuvvvvwwwxxxxyyyyzzz...
(PID.TID 0000.0001) //     74 z...zzzzyyyxxxxwwwwvvvuuuuttttssssrrrrqqqqppppooooonnnnmmmmmlllllkkkkkjjjjjjiiiiiiihhhhhhhggggggggggffffffffffffffffeeeeeeeeeeeeeeeeeeeeeffffffffffffffffgggggggggghhhhhhhiiiiiiijjjjjjkkkkklllllmmmmmnnnnoooooppppqqqqrrrrssssttttuuuuvvvwwwwxxxxyyyzzzz...
(PID.TID 0000.0001) //     73 z...zzzzyyyxxxxwwwwvvvvuuuttttssssrrrrqqqqpppppoooonnnnnmmmmmlllllkkkkkjjjjjjiiiiiiihhhhhhhhggggggggggfffffffffffffffffffffffffffffffffffffffffffffffffgggggggggghhhhhhhhiiiiiiijjjjjjkkkkklllllmmmmmnnnnnoooopppppqqqqrrrrssssttttuuuvvvvwwwwxxxxyyyzzzz...
(PID.TID 0000.0001) //     72 z...zzzzyyyxxxxwwwwvvvvuuuuttttssssrrrrqqqqppppooooonnnnmmmmmllllllkkkkkjjjjjjiiiiiiihhhhhhhhhgggggggggggfffffffffffffffffffffffffffffffffffffffffffggggggggggghhhhhhhhhiiiiiiijjjjjjkkkkkllllllmmmmmnnnnoooooppppqqqqrrrrssssttttuuuuvvvvwwwwxxxxyyyzzzz...
(PID.TID 0000.0001) //     71 z...zzzzyyyxxxxwwwwvvvvuuuuttttssssrrrrqqqqpppppoooonnnnnmmmmmlllllkkkkkkjjjjjjjiiiiiiihhhhhhhhhggggggggggggfffffffffffffffffffffffffffffffffffffgggggggggggghhhhhhhhhiiiiiiijjjjjjjkkkkkklllllmmmmmnnnnnoooopppppqqqqrrrrssssttttuuuuvvvvwwwwxxxxyyyzzzz...
(PID.TID 0000.0001) //     70 z...zzzzyyyyxxxwwwwvvvvuuuuttttssssrrrrqqqqqppppooooonnnnnmmmmmlllllkkkkkkjjjjjjjiiiiiiihhhhhhhhhhggggggggggggggfffffffffffffffffffffffffffffgggggggggggggghhhhhhhhhhiiiiiiijjjjjjjkkkkkklllllmmmmmnnnnnoooooppppqqqqqrrrrssssttttuuuuvvvvwwwwxxxyyyyzzzz...
(PID.TID 0000.0001) //     69 z...zzzzyyyyxxxxwwwvvvvuuuuttttsssssrrrrqqqqpppppooooonnnnmmmmmmlllllkkkkkkjjjjjjjiiiiiiiihhhhhhhhhhggggggggggggggggggfffffffffffffffffgggggggggggggggggghhhhhhhhhhiiiiiiiijjjjjjjkkkkkklllllmmmmmmnnnnooooopppppqqqqrrrrsssssttttuuuuvvvvwwwxxxxyyyyzzzz...
(PID.TID 0000.0001) //     68 z...zzzzyyyyxxxxwwwwvvvvuuuuttttssssrrrrqqqqqppppooooonnnnnmmmmmmlllllkkkkkkkjjjjjjjiiiiiiiihhhhhhhhhhhggggggggggggggggggggggggggggggggggggggggggggggghhhhhhhhhhhiiiiiiiijjjjjjjkkkkkkklllllmmmmmmnnnnnoooooppppqqqqqrrrrssssttttuuuuvvvvwwwwxxxxyyyyzzzz...
(PID.TID 0000.0001) //     67 z...zzzzyyyyxxxxwwwwvvvvuuuuttttssssrrrrrqqqqpppppooooonnnnnmmmmmllllllkkkkkkkjjjjjjjiiiiiiiiihhhhhhhhhhhhggggggggggggggggggggggggggggggggggggggggghhhhhhhhhhhhiiiiiiiiijjjjjjjkkkkkkkllllllmmmmmnnnnnooooopppppqqqqrrrrrssssttttuuuuvvvvwwwwxxxxyyyyzzzz...
(PID.TID 0000.0001) //     66 z...zzzzyyyyxxxxwwwwvvvvuuuutttttssssrrrrqqqqqpppppooooonnnnnmmmmmllllllkkkkkkkjjjjjjjjiiiiiiiiihhhhhhhhhhhhhhggggggggggggggggggggggggggggggggghhhhhhhhhhhhhhiiiiiiiiijjjjjjjjkkkkkkkllllllmmmmmnnnnnooooopppppqqqqqrrrrsssstttttuuuuvvvvwwwwxxxxyyyyzzzz...
(PID.TID 0000.0001) //     65 z...zzzzyyyyxxxxwwwwvvvvuuuuuttttssssrrrrrqqqqpppppooooonnnnnnmmmmmlllllllkkkkkkjjjjjjjjiiiiiiiiiiihhhhhhhhhhhhhhhhggggggggggggggggggggggghhhhhhhhhhhhhhhhiiiiiiiiiiijjjjjjjjkkkkkklllllllmmmmmnnnnnnooooopppppqqqqrrrrrssssttttuuuuuvvvvwwwwxxxxyyyyzzzz...
(PID.TID 0000.0001) //     64 z...zzzzyyyyxxxxwwwwvvvvvuuuuttttsssssrrrrqqqqqpppppooooonnnnnnmmmmmlllllllkkkkkkkjjjjjjjjiiiiiiiiiiihhhhhhhhhhhhhhhhhhhhhhhhhhhhhhhhhhhhhhhhhhhhhhhhhhhiiiiiiiiiiijjjjjjjjkkkkkkklllllllmmmmmnnnnnnooooopppppqqqqqrrrrsssssttttuuuuvvvvvwwwwxxxxyyyyzzzz...
(PID.TID 0000.0001) //     63 z...zzzzyyyyxxxxxwwwwvvvvuuuutttttssssrrrrrqqqqqpppppooooonnnnnnmmmmmmllllllkkkkkkkkjjjjjjjjiiiiiiiiiiiiihhhhhhhhhhhhhhhhhhhhhhhhhhhhhhhhhhhhhhhhhhhiiiiiiiiiiiiijjjjjjjjkkkkkkkkllllllmmmmmmnnnnnnooooopppppqqqqqrrrrrsssstttttuuuuvvvvwwwwxxxxxyyyyzzzz...
(PID.TID 0000.0001) //     62 z...zzzzyyyyxxxxxwwwwvvvvuuuuuttttsssssrrrrqqqqqpppppoooooonnnnnnmmmmmmlllllllkkkkkkkjjjjjjjjjjiiiiiiiiiiiiihhhhhhhhhhhhhhhhhhhhhhhhhhhhhhhhhhhhhiiiiiiiiiiiiijjjjjjjjjjkkkkkkklllllllmmmmmmnnnnnnoooooopppppqqqqqrrrrsssssttttuuuuuvvvvwwwwxxxxxyyyyzzzz...
(PID.TID 0000.0001) //     61 z...zzzzyyyyyxxxxwwwwvvvvvuuuutttttssssrrrrrqqqqqpppppoooooonnnnnnmmmmmmlllllllkkkkkkkkjjjjjjjjjjiiiiiiiiiiiiiiiiihhhhhhhhhhhhhhhhhhhhhhhhhiiiiiiiiiiiiiiiiijjjjjjjjjjkkkkkkkklllllllmmmmmmnnnnnnoooooopppppqqqqqrrrrrsssstttttuuuuvvvvvwwwwxxxxyyyyyzzzz...
(PID.TID 0000.0001) //     60 z...zzzzyyyyyxxxxwwwwvvvvvuuuutttttsssssrrrrrqqqqqpppppoooooonnnnnnmmmmmmllllllllkkkkkkkkjjjjjjjjjjjiiiiiiiiiiiiiiiiiiiiiiiiiiiiiiiiiiiiiiiiiiiiiiiiiiiiijjjjjjjjjjjkkkkkkkkllllllllmmmmmmnnnnnnoooooopppppqqqqqrrrrrssssstttttuuuuvvvvvwwwwxxxxyyyyyzzzz...
(PID.TID 0000.0001) //     59 z...zzzzzyyyyxxxxwwwwwvvvvuuuuutttttssssrrrrrqqqqqqpppppoooooonnnnnnmmmmmmmlllllllkkkkkkkkkjjjjjjjjjjjjjiiiiiiiiiiiiiiiiiiiiiiiiiiiiiiiiiiiiiiiiiiiiijjjjjjjjjjjjjkkkkkkkkklllllllmmmmmmmnnnnnnoooooopppppqqqqqqrrrrrsssstttttuuuuuvvvvwwwwwxxxxyyyyzzzzz...
(PID.TID 0000.0001) //     58 z...zzzzzyyyyxxxxxwwwwvvvvvuuuutttttsssssrrrrrqqqqqppppppoooooonnnnnnmmmmmmmllllllllkkkkkkkkkkjjjjjjjjjjjjjjiiiiiiiiiiiiiiiiiiiiiiiiiiiiiiiiiiiiijjjjjjjjjjjjjjkkkkkkkkkkllllllllmmmmmmmnnnnnnooooooppppppqqqqqrrrrrssssstttttuuuuvvvvvwwwwxxxxxyyyyzzzzz...
(PID.TID 0000.0001) //     57 z...zzzzzyyyyxxxxxwwwwvvvvvuuuuutttttsssssrrrrrqqqqqppppppoooooonnnnnnmmmmmmmmllllllllkkkkkkkkkkkjjjjjjjjjjjjjjjjjiiiiiiiiiiiiiiiiiiiiiiiiijjjjjjjjjjjjjjjjjkkkkkkkkkkkllllllllmmmmmmmmnnnnnnooooooppppppqqqqqrrrrrssssstttttuuuuuvvvvvwwwwxxxxxyyyyzzzzz...
(PID.TID 0000.0001) //     56 z...zzzzzyyyyxxxxxwwwwwvvvvuuuuutttttsssssrrrrrqqqqqqppppppoooooonnnnnnnmmmmmmmlllllllllkkkkkkkkkkkkjjjjjjjjjjjjjjjjjjjjjjjjjjjjjjjjjjjjjjjjjjjjjjjjjjjjjkkkkkkkkkkkklllllllllmmmmmmmnnnnnnnooooooppppppqqqqqqrrrrrssssstttttuuuuuvvvvwwwwwxxxxxyyyyzzzzz...
(PID.TID 0000.0001) //     55 z...zzzzzyyyyyxxxxwwwwwvvvvvuuuuutttttsssssrrrrrqqqqqqppppppoooooonnnnnnnmmmmmmmmllllllllllkkkkkkkkkkkkkjjjjjjjjjjjjjjjjjjjjjjjjjjjjjjjjjjjjjjjjjjjjjkkkkkkkkkkkkkllllllllllmmmmmmmmnnnnnnnooooooppppppqqqqqqrrrrrssssstttttuuuuuvvvvvwwwwwxxxxyyyyyzzzzz...
(PID.TID 0000.0001) //     54 z...zzzzzyyyyyxxxxxwwwwvvvvvuuuuutttttssssssrrrrrqqqqqqppppppooooooonnnnnnnmmmmmmmmllllllllllkkkkkkkkkkkkkkkjjjjjjjjjjjjjjjjjjjjjjjjjjjjjjjjjjjjjkkkkkkkkkkkkkkkllllllllllmmmmmmmmnnnnnnnoooooooppppppqqqqqqrrrrrsssssstttttuuuuuvvvvvwwwwxxxxxyyyyyzzzzz...
(PID.TID 0000.0001) //     53 z...zzzzzyyyyyxxxxxwwwwwvvvvvuuuuutttttsssssrrrrrrqqqqqqppppppooooooonnnnnnnnmmmmmmmmlllllllllllkkkkkkkkkkkkkkkkkkkjjjjjjjjjjjjjjjjjjjjjjjkkkkkkkkkkkkkkkkkkklllllllllllmmmmmmmmnnnnnnnnoooooooppppppqqqqqqrrrrrrssssstttttuuuuuvvvvvwwwwwxxxxxyyyyyzzzzz...
(PID.TID 0000.0001) //     52 z...zzzzzyyyyyxxxxxwwwwwvvvvvuuuuuttttttsssssrrrrrrqqqqqqppppppoooooooonnnnnnnmmmmmmmmmmllllllllllllkkkkkkkkkkkkkkkkkkkkkkkkkkkkkkkkkkkkkkkkkkkkkkkkkkkkkllllllllllllmmmmmmmmmmnnnnnnnooooooooppppppqqqqqqrrrrrrsssssttttttuuuuuvvvvvwwwwwxxxxxyyyyyzzzzz...
(PID.TID 0000.0001) //     51 +...+zzzzyyyyyxxxxxwwwwwvvvvvvuuuuutttttssssssrrrrrrqqqqqqpppppppooooooonnnnnnnnmmmmmmmmmmllllllllllllllkkkkkkkkkkkkkkkkkkkkkkkkkkkkkkkkkkkkkkkkkkkkkllllllllllllllmmmmmmmmmmnnnnnnnnooooooopppppppqqqqqqrrrrrrsssssstttttuuuuuvvvvvvwwwwwxxxxxyyyyyzzzz+...
(PID.TID 0000.0001) //     50 +...+zzzzzyyyyyxxxxxwwwwwvvvvvuuuuuttttttssssssrrrrrrqqqqqqpppppppoooooooonnnnnnnnnmmmmmmmmmmlllllllllllllllllkkkkkkkkkkkkkkkkkkkkkkkkkkkkkkkkklllllllllllllllllmmmmmmmmmmnnnnnnnnnoooooooopppppppqqqqqqrrrrrrssssssttttttuuuuuvvvvvwwwwwxxxxxyyyyyzzzzz+...
(PID.TID 0000.0001) //     49 +...+zzzzzyyyyyxxxxxwwwwwvvvvvvuuuuuttttttssssssrrrrrrqqqqqqqpppppppoooooooonnnnnnnnnmmmmmmmmmmmmllllllllllllllllllllllkkkkkkkkkkkkkkkllllllllllllllllllllllmmmmmmmmmmmmnnnnnnnnnoooooooopppppppqqqqqqqrrrrrrssssssttttttuuuuuvvvvvvwwwwwxxxxxyyyyyzzzzz+...
(PID.TID 0000.0001) //     48 +...+zzzzzyyyyyxxxxxwwwwwwvvvvvuuuuuuttttttssssssrrrrrrqqqqqqqpppppppooooooooonnnnnnnnnnmmmmmmmmmmmmmlllllllllllllllllllllllllllllllllllllllllllllllllllmmmmmmmmmmmmmnnnnnnnnnnooooooooopppppppqqqqqqqrrrrrrssssssttttttuuuuuuvvvvvwwwwwwxxxxxyyyyyzzzzz+...
(PID.TID 0000.0001) //     47 +...+zzzzzyyyyyxxxxxxwwwwwvvvvvvuuuuuttttttsssssssrrrrrrqqqqqqqppppppppooooooooonnnnnnnnnnmmmmmmmmmmmmmmmmlllllllllllllllllllllllllllllllllllllllllmmmmmmmmmmmmmmmmnnnnnnnnnnoooooooooppppppppqqqqqqqrrrrrrsssssssttttttuuuuuvvvvvvwwwwwxxxxxxyyyyyzzzzz+...
(PID.TID 0000.0001) //     46 +...+zzzzzyyyyyyxxxxxwwwwwwvvvvvuuuuuuttttttsssssssrrrrrrqqqqqqqqppppppppooooooooonnnnnnnnnnnnmmmmmmmmmmmmmmmmmmmlllllllllllllllllllllllllllmmmmmmmmmmmmmmmmmmmnnnnnnnnnnnnoooooooooppppppppqqqqqqqqrrrrrrsssssssttttttuuuuuuvvvvvwwwwwwxxxxxyyyyyyzzzzz+...
(PID.TID 0000.0001) //     45 +...+zzzzzyyyyyyxxxxxwwwwwwvvvvvvuuuuuuttttttsssssssrrrrrrrqqqqqqqpppppppppoooooooooonnnnnnnnnnnnnmmmmmmmmmmmmmmmmmmmmmmmmmmmmmmmmmmmmmmmmmmmmmmmmmmmmmmmmmnnnnnnnnnnnnnoooooooooopppppppppqqqqqqqrrrrrrrsssssssttttttuuuuuuvvvvvvwwwwwwxxxxxyyyyyyzzzzz+...
(PID.TID 0000.0001) //     44 +...+zzzzzyyyyyyxxxxxxwwwwwwvvvvvvuuuuuuttttttsssssssrrrrrrrqqqqqqqqpppppppppooooooooooonnnnnnnnnnnnnnmmmmmmmmmmmmmmmmmmmmmmmmmmmmmmmmmmmmmmmmmmmmmmmmmnnnnnnnnnnnnnnooooooooooopppppppppqqqqqqqqrrrrrrrsssssssttttttuuuuuuvvvvvvwwwwwwxxxxxxyyyyyyzzzzz+...
(PID.TID 0000.0001) //     43 +...+zzzzzzyyyyyxxxxxxwwwwwwvvvvvvuuuuuuuttttttsssssssrrrrrrrrqqqqqqqqpppppppppoooooooooooonnnnnnnnnnnnnnnnnnmmmmmmmmmmmmmmmmmmmmmmmmmmmmmmmmmmmnnnnnnnnnnnnnnnnnnoooooooooooopppppppppqqqqqqqqrrrrrrrrsssssssttttttuuuuuuuvvvvvvwwwwwwxxxxxxyyyyyzzzzzz+...
(PID.TID 0000.0001) //     42 +...+zzzzzzyyyyyyxxxxxxwwwwwwvvvvvvuuuuuuuttttttssssssssrrrrrrrqqqqqqqqqppppppppppooooooooooooonnnnnnnnnnnnnnnnnnnnnnnnnmmmmmmmmmmmmmnnnnnnnnnnnnnnnnnnnnnnnnnoooooooooooooppppppppppqqqqqqqqqrrrrrrrssssssssttttttuuuuuuuvvvvvvwwwwwwxxxxxxyyyyyyzzzzzz+...
(PID.TID 0000.0001) //     41 +...+zzzzzzyyyyyyxxxxxxwwwwwwvvvvvvvuuuuuuutttttttsssssssrrrrrrrrqqqqqqqqqpppppppppppoooooooooooooonnnnnnnnnnnnnnnnnnnnnnnnnnnnnnnnnnnnnnnnnnnnnnnnnnnnnnnoooooooooooooopppppppppppqqqqqqqqqrrrrrrrrssssssstttttttuuuuuuuvvvvvvvwwwwwwxxxxxxyyyyyyzzzzzz+...
(PID.TID 0000.0001) //     40 +...+zzzzzzyyyyyyxxxxxxxwwwwwwvvvvvvvuuuuuuutttttttssssssssrrrrrrrrqqqqqqqqqqpppppppppppooooooooooooooooonnnnnnnnnnnnnnnnnnnnnnnnnnnnnnnnnnnnnnnnnnnooooooooooooooooopppppppppppqqqqqqqqqqrrrrrrrrsssssssstttttttuuuuuuuvvvvvvvwwwwwwxxxxxxxyyyyyyzzzzzz+...
(PID.TID 0000.0001) //     39 +...+zzzzzzyyyyyyyxxxxxxwwwwwwwvvvvvvvuuuuuuutttttttssssssssrrrrrrrrrqqqqqqqqqqpppppppppppppoooooooooooooooooooooonnnnnnnnnnnnnnnnnnnnnnnnnoooooooooooooooooooooopppppppppppppqqqqqqqqqqrrrrrrrrrsssssssstttttttuuuuuuuvvvvvvvwwwwwwwxxxxxxyyyyyyyzzzzzz+...
(PID.TID 0000.0001) //     38 +...+zzzzzzzyyyyyyxxxxxxxwwwwwwwvvvvvvvuuuuuuuttttttttssssssssrrrrrrrrrqqqqqqqqqqqpppppppppppppppooooooooooooooooooooooooooooooooooooooooooooooooooooooooooopppppppppppppppqqqqqqqqqqqrrrrrrrrrssssssssttttttttuuuuuuuvvvvvvvwwwwwwwxxxxxxxyyyyyyzzzzzzz+...
(PID.TID 0000.0001) //     37 +...+zzzzzzzyyyyyyyxxxxxxwwwwwwwvvvvvvvvuuuuuuuttttttttsssssssssrrrrrrrrrrqqqqqqqqqqqqppppppppppppppppoooooooooooooooooooooooooooooooooooooooooooooooooppppppppppppppppqqqqqqqqqqqqrrrrrrrrrrsssssssssttttttttuuuuuuuvvvvvvvvwwwwwwwxxxxxxyyyyyyyzzzzzzz+...
(PID.TID 0000.0001) //     36 +...+zzzzzzzyyyyyyyxxxxxxxwwwwwwwvvvvvvvvuuuuuuutttttttttsssssssssrrrrrrrrrrrqqqqqqqqqqqqqppppppppppppppppppppoooooooooooooooooooooooooooooooooppppppppppppppppppppqqqqqqqqqqqqqrrrrrrrrrrrssssssssstttttttttuuuuuuuvvvvvvvvwwwwwwwxxxxxxxyyyyyyyzzzzzzz+...
(PID.TID 0000.0001) //     35 +...++zzzzzzyyyyyyyyxxxxxxxwwwwwwwvvvvvvvvuuuuuuuutttttttttsssssssssrrrrrrrrrrrrqqqqqqqqqqqqqqpppppppppppppppppppppppppppppppppppppppppppppppppppppppppppppppppqqqqqqqqqqqqqqrrrrrrrrrrrrssssssssstttttttttuuuuuuuuvvvvvvvvwwwwwwwxxxxxxxyyyyyyyyzzzzzz++...
(PID.TID 0000.0001) //     34 +...++zzzzzzzyyyyyyyxxxxxxxwwwwwwwwvvvvvvvvuuuuuuuuttttttttttssssssssssrrrrrrrrrrrrqqqqqqqqqqqqqqqqqpppppppppppppppppppppppppppppppppppppppppppppppppppppqqqqqqqqqqqqqqqqqrrrrrrrrrrrrssssssssssttttttttttuuuuuuuuvvvvvvvvwwwwwwwwxxxxxxxyyyyyyyzzzzzzz++...
(PID.TID 0000.0001) //     33 +...++zzzzzzzyyyyyyyyxxxxxxxwwwwwwwwvvvvvvvvuuuuuuuuuttttttttttsssssssssssrrrrrrrrrrrrrqqqqqqqqqqqqqqqqqqqqqpppppppppppppppppppppppppppppppppppppqqqqqqqqqqqqqqqqqqqqqrrrrrrrrrrrrrsssssssssssttttttttttuuuuuuuuuvvvvvvvvwwwwwwwwxxxxxxxyyyyyyyyzzzzzzz++...
(PID.TID 0000.0001) //     32 +...++zzzzzzzyyyyyyyyxxxxxxxxwwwwwwwwvvvvvvvvvuuuuuuuuuttttttttttssssssssssssrrrrrrrrrrrrrrrqqqqqqqqqqqqqqqqqqqqqqqqqqqqqqqqqqqqqqqqqqqqqqqqqqqqqqqqqqqqqqqqqqqqqrrrrrrrrrrrrrrrssssssssssssttttttttttuuuuuuuuuvvvvvvvvvwwwwwwwwxxxxxxxxyyyyyyyyzzzzzzz++...
(PID.TID 0000.0001) //     31 +...++zzzzzzzzyyyyyyyyxxxxxxxxwwwwwwwwvvvvvvvvvuuuuuuuuuutttttttttttssssssssssssrrrrrrrrrrrrrrrrrqqqqqqqqqqqqqqqqqqqqqqqqqqqqqqqqqqqqqqqqqqqqqqqqqqqqqqqqqqqrrrrrrrrrrrrrrrrrsssssssssssstttttttttttuuuuuuuuuuvvvvvvvvvwwwwwwwwxxxxxxxxyyyyyyyyzzzzzzzz++...
(PID.TID 0000.0001) //     30 +...++zzzzzzzzyyyyyyyyxxxxxxxxxwwwwwwwwwvvvvvvvvvuuuuuuuuuutttttttttttssssssssssssssrrrrrrrrrrrrrrrrrrrrrqqqqqqqqqqqqqqqqqqqqqqqqqqqqqqqqqqqqqqqqqqqrrrrrrrrrrrrrrrrrrrrrsssssssssssssstttttttttttuuuuuuuuuuvvvvvvvvvwwwwwwwwwxxxxxxxxxyyyyyyyyzzzzzzzz++...
(PID.TID 0000.0001) //     29 +...++zzzzzzzzzyyyyyyyyxxxxxxxxxwwwwwwwwwvvvvvvvvvvuuuuuuuuuutttttttttttttsssssssssssssssrrrrrrrrrrrrrrrrrrrrrrrrrrrrrrrqqqqqqqqqqqqqrrrrrrrrrrrrrrrrrrrrrrrrrrrrrrrssssssssssssssstttttttttttttuuuuuuuuuuvvvvvvvvvvwwwwwwwwwxxxxxxxxxyyyyyyyyzzzzzzzzz++...
(PID.TID 0000.0001) //     28 +...++zzzzzzzzzyyyyyyyyyxxxxxxxxxwwwwwwwwwvvvvvvvvvvvuuuuuuuuuuutttttttttttttssssssssssssssssssrrrrrrrrrrrrrrrrrrrrrrrrrrrrrrrrrrrrrrrrrrrrrrrrrrrrrrrrrrrrrrrsssssssssssssssssstttttttttttttuuuuuuuuuuuvvvvvvvvvvvwwwwwwwwwxxxxxxxxxyyyyyyyyyzzzzzzzzz++...
(PID.TID 0000.0001) //     27 +...+++zzzzzzzzzyyyyyyyyyxxxxxxxxxwwwwwwwwwwvvvvvvvvvvvuuuuuuuuuuuuttttttttttttttssssssssssssssssssssssrrrrrrrrrrrrrrrrrrrrrrrrrrrrrrrrrrrrrrrrrrrrrrrssssssssssssssssssssssttttttttttttttuuuuuuuuuuuuvvvvvvvvvvvwwwwwwwwwwxxxxxxxxxyyyyyyyyyzzzzzzzzz+++...
(PID.TID 0000.0001) //     26 +...+++zzzzzzzzzyyyyyyyyyyxxxxxxxxxwwwwwwwwwwwvvvvvvvvvvvuuuuuuuuuuuuuttttttttttttttttsssssssssssssssssssssssssssssssrrrrrrrrrrrrrrrrrrrsssssssssssssssssssssssssssssssttttttttttttttttuuuuuuuuuuuuuvvvvvvvvvvvwwwwwwwwwwwxxxxxxxxxyyyyyyyyyyzzzzzzzzz+++...
(PID.TID 0000.0001) //     25 +...+++zzzzzzzzzzyyyyyyyyyxxxxxxxxxxxwwwwwwwwwwwvvvvvvvvvvvvuuuuuuuuuuuuuuttttttttttttttttttsssssssssssssssssssssssssssssssssssssssssssssssssssssssssssssssssssssttttttttttttttttttuuuuuuuuuuuuuuvvvvvvvvvvvvwwwwwwwwwwwxxxxxxxxxxxyyyyyyyyyzzzzzzzzzz+++...
(PID.TID 0000.0001) //     24 +...+++zzzzzzzzzzyyyyyyyyyyyxxxxxxxxxxwwwwwwwwwwwwvvvvvvvvvvvvvuuuuuuuuuuuuuuutttttttttttttttttttttttssssssssssssssssssssssssssssssssssssssssssssssssssstttttttttttttttttttttttuuuuuuuuuuuuuuuvvvvvvvvvvvvvwwwwwwwwwwwwxxxxxxxxxxyyyyyyyyyyyzzzzzzzzzz+++...
(PID.TID 0000.0001) //     23 +...+++zzzzzzzzzzzyyyyyyyyyyyxxxxxxxxxxxwwwwwwwwwwwwvvvvvvvvvvvvvvuuuuuuuuuuuuuuuuutttttttttttttttttttttttttttttttssssssssssssssssssssssssstttttttttttttttttttttttttttttttuuuuuuuuuuuuuuuuuvvvvvvvvvvvvvvwwwwwwwwwwwwxxxxxxxxxxxyyyyyyyyyyyzzzzzzzzzzz+++...
(PID.TID 0000.0001) //     22 +...++++zzzzzzzzzzzyyyyyyyyyyyxxxxxxxxxxxxwwwwwwwwwwwwwvvvvvvvvvvvvvvvuuuuuuuuuuuuuuuuuuuutttttttttttttttttttttttttttttttttttttttttttttttttttttttttttttttttttttttttuuuuuuuuuuuuuuuuuuuuvvvvvvvvvvvvvvvwwwwwwwwwwwwwxxxxxxxxxxxxyyyyyyyyyyyzzzzzzzzzzz++++...
(PID.TID 0000.0001) //     21 +...++++zzzzzzzzzzzyyyyyyyyyyyyxxxxxxxxxxxxxwwwwwwwwwwwwwwvvvvvvvvvvvvvvvvvuuuuuuuuuuuuuuuuuuuuuuutttttttttttttttttttttttttttttttttttttttttttttttttttttttttuuuuuuuuuuuuuuuuuuuuuuuvvvvvvvvvvvvvvvvvwwwwwwwwwwwwwwxxxxxxxxxxxxxyyyyyyyyyyyyzzzzzzzzzzz++++...
(PID.TID 0000.0001) //     20 +...++++zzzzzzzzzzzzyyyyyyyyyyyyyxxxxxxxxxxxxxwwwwwwwwwwwwwwwvvvvvvvvvvvvvvvvvvvuuuuuuuuuuuuuuuuuuuuuuuuuuuuuuuuutttttttttttttttttttttttttttuuuuuuuuuuuuuuuuuuuuuuuuuuuuuuuuuvvvvvvvvvvvvvvvvvvvwwwwwwwwwwwwwwwxxxxxxxxxxxxxyyyyyyyyyyyyyzzzzzzzzzzzz++++...
(PID.TID 0000.0001) //     19 +...+++++zzzzzzzzzzzzyyyyyyyyyyyyyyxxxxxxxxxxxxxxwwwwwwwwwwwwwwwwvvvvvvvvvvvvvvvvvvvvvvuuuuuuuuuuuuuuuuuuuuuuuuuuuuuuuuuuuuuuuuuuuuuuuuuuuuuuuuuuuuuuuuuuuuuuuuuuuuuuuvvvvvvvvvvvvvvvvvvvvvvwwwwwwwwwwwwwwwwxxxxxxxxxxxxxxyyyyyyyyyyyyyyzzzzzzzzzzzz+++++...
(PID.TID 0000.0001) //     18 +...+++++zzzzzzzzzzzzzyyyyyyyyyyyyyyyxxxxxxxxxxxxxxxwwwwwwwwwwwwwwwwwwvvvvvvvvvvvvvvvvvvvvvvvvvvuuuuuuuuuuuuuuuuuuuuuuuuuuuuuuuuuuuuuuuuuuuuuuuuuuuuuuuuuuuuuvvvvvvvvvvvvvvvvvvvvvvvvvvwwwwwwwwwwwwwwwwwwxxxxxxxxxxxxxxxyyyyyyyyyyyyyyyzzzzzzzzzzzzz+++++...
(PID.TID 0000.0001) //     17 +...+++++zzzzzzzzzzzzzzzyyyyyyyyyyyyyyyxxxxxxxxxxxxxxxxxwwwwwwwwwwwwwwwwwwwwvvvvvvvvvvvvvvvvvvvvvvvvvvvvvvvvvvvvuuuuuuuuuuuuuuuuuuuuuuuuuuuuuvvvvvvvvvvvvvvvvvvvvvvvvvvvvvvvvvvvvwwwwwwwwwwwwwwwwwwwwxxxxxxxxxxxxxxxxxyyyyyyyyyyyyyyyzzzzzzzzzzzzzzz+++++...
(PID.TID 0000.0001) //     16 +...++++++zzzzzzzzzzzzzzzyyyyyyyyyyyyyyyyxxxxxxxxxxxxxxxxxxxwwwwwwwwwwwwwwwwwwwwwwwvvvvvvvvvvvvvvvvvvvvvvvvvvvvvvvvvvvvvvvvvvvvvvvvvvvvvvvvvvvvvvvvvvvvvvvvvvvvvvvvvvvvvvvwwwwwwwwwwwwwwwwwwwwwwwxxxxxxxxxxxxxxxxxxxyyyyyyyyyyyyyyyyzzzzzzzzzzzzzzz++++++...
(PID.TID 0000.0001) //     15 +...++++++zzzzzzzzzzzzzzzzzyyyyyyyyyyyyyyyyyxxxxxxxxxxxxxxxxxxxxxwwwwwwwwwwwwwwwwwwwwwwwwwwwwvvvvvvvvvvvvvvvvvvvvvvvvvvvvvvvvvvvvvvvvvvvvvvvvvvvvvvvvvvvvvvvvvvvwwwwwwwwwwwwwwwwwwwwwwwwwwwwxxxxxxxxxxxxxxxxxxxxxyyyyyyyyyyyyyyyyyzzzzzzzzzzzzzzzzz++++++...
(PID.TID 0000.0001) //     14 +...+++++++zzzzzzzzzzzzzzzzzzyyyyyyyyyyyyyyyyyyyxxxxxxxxxxxxxxxxxxxxxxxwwwwwwwwwwwwwwwwwwwwwwwwwwwwwwwwwwwwwwwwvvvvvvvvvvvvvvvvvvvvvvvvvvvvvvvwwwwwwwwwwwwwwwwwwwwwwwwwwwwwwwwwwwwwwwwxxxxxxxxxxxxxxxxxxxxxxxyyyyyyyyyyyyyyyyyyyzzzzzzzzzzzzzzzzzz+++++++...
(PID.TID 0000.0001) //     13 +...++++++++zzzzzzzzzzzzzzzzzzzyyyyyyyyyyyyyyyyyyyyyxxxxxxxxxxxxxxxxxxxxxxxxxxxwwwwwwwwwwwwwwwwwwwwwwwwwwwwwwwwwwwwwwwwwwwwwwwwwwwwwwwwwwwwwwwwwwwwwwwwwwwwwwwwwwwwwwwwwwwwwwwxxxxxxxxxxxxxxxxxxxxxxxxxxxyyyyyyyyyyyyyyyyyyyyyzzzzzzzzzzzzzzzzzzz++++++++...
(PID.TID 0000.0001) //     12 +...++++++++zzzzzzzzzzzzzzzzzzzzzyyyyyyyyyyyyyyyyyyyyyyyyxxxxxxxxxxxxxxxxxxxxxxxxxxxxxxxxxwwwwwwwwwwwwwwwwwwwwwwwwwwwwwwwwwwwwwwwwwwwwwwwwwwwwwwwwwwwwwwwwwwwwwwwwwxxxxxxxxxxxxxxxxxxxxxxxxxxxxxxxxxyyyyyyyyyyyyyyyyyyyyyyyyzzzzzzzzzzzzzzzzzzzzz++++++++...
(PID.TID 0000.0001) //     11 +...+++++++++zzzzzzzzzzzzzzzzzzzzzzzyyyyyyyyyyyyyyyyyyyyyyyyyyyxxxxxxxxxxxxxxxxxxxxxxxxxxxxxxxxxxxxxxxxxxxxxxxxwwwwwwwwwwwwwwwwwwwwwwwwwwwwwwwxxxxxxxxxxxxxxxxxxxxxxxxxxxxxxxxxxxxxxxxxxxxxxxxyyyyyyyyyyyyyyyyyyyyyyyyyyyzzzzzzzzzzzzzzzzzzzzzzz+++++++++...
(PID.TID 0000.0001) //     10 +...+++++++++++zzzzzzzzzzzzzzzzzzzzzzzzzyyyyyyyyyyyyyyyyyyyyyyyyyyyyyyyyxxxxxxxxxxxxxxxxxxxxxxxxxxxxxxxxxxxxxxxxxxxxxxxxxxxxxxxxxxxxxxxxxxxxxxxxxxxxxxxxxxxxxxxxxxxxxxxxxxxxxxxxxxxxxyyyyyyyyyyyyyyyyyyyyyyyyyyyyyyyyzzzzzzzzzzzzzzzzzzzzzzzzz+++++++++++...
(PID.TID 0000.0001) //      9 +...++++++++++++zzzzzzzzzzzzzzzzzzzzzzzzzzzzzyyyyyyyyyyyyyyyyyyyyyyyyyyyyyyyyyyyyyyyyxxxxxxxxxxxxxxxxxxxxxxxxxxxxxxxxxxxxxxxxxxxxxxxxxxxxxxxxxxxxxxxxxxxxxxxxxxxxxxxxxxxyyyyyyyyyyyyyyyyyyyyyyyyyyyyyyyyyyyyyyyyzzzzzzzzzzzzzzzzzzzzzzzzzzzzz++++++++++++...
(PID.TID 0000.0001) //      8 +...++++++++++++++zzzzzzzzzzzzzzzzzzzzzzzzzzzzzzzzzzyyyyyyyyyyyyyyyyyyyyyyyyyyyyyyyyyyyyyyyyyyyyyyyyyyyyyyyyyyyxxxxxxxxxxxxxxxxxxxxxxxxxxxxxxxyyyyyyyyyyyyyyyyyyyyyyyyyyyyyyyyyyyyyyyyyyyyyyyyyyyyyyyyyyyzzzzzzzzzzzzzzzzzzzzzzzzzzzzzzzzzz++++++++++++++...
(PID.TID 0000.0001) //      7 +...+++++++++++++++++zzzzzzzzzzzzzzzzzzzzzzzzzzzzzzzzzzzzzzzzyyyyyyyyyyyyyyyyyyyyyyyyyyyyyyyyyyyyyyyyyyyyyyyyyyyyyyyyyyyyyyyyyyyyyyyyyyyyyyyyyyyyyyyyyyyyyyyyyyyyyyyyyyyyyyyyyyyyyyyyyyyyyyyyyyyzzzzzzzzzzzzzzzzzzzzzzzzzzzzzzzzzzzzzzzz+++++++++++++++++...
(PID.TID 0000.0001) //      6 +...++++++++++++++++++++zzzzzzzzzzzzzzzzzzzzzzzzzzzzzzzzzzzzzzzzzzzzzzzzzzzzyyyyyyyyyyyyyyyyyyyyyyyyyyyyyyyyyyyyyyyyyyyyyyyyyyyyyyyyyyyyyyyyyyyyyyyyyyyyyyyyyyyyyyyyyyyyyyyyyyyyyzzzzzzzzzzzzzzzzzzzzzzzzzzzzzzzzzzzzzzzzzzzzzzzzzzzz++++++++++++++++++++...
(PID.TID 0000.0001) //      5 +...+++++++++++++++++++++++++zzzzzzzzzzzzzzzzzzzzzzzzzzzzzzzzzzzzzzzzzzzzzzzzzzzzzzzzzzzzzzzzzzzzzzzzzzzzzzzzzzzyyyyyyyyyyyyyyyyyyyyyyyyyyyyyzzzzzzzzzzzzzzzzzzzzzzzzzzzzzzzzzzzzzzzzzzzzzzzzzzzzzzzzzzzzzzzzzzzzzzzzzzzzzzzzzzz+++++++++++++++++++++++++...
(PID.TID 0000.0001) //      4 +...+++++++++++++++++++++++++++++++++zzzzzzzzzzzzzzzzzzzzzzzzzzzzzzzzzzzzzzzzzzzzzzzzzzzzzzzzzzzzzzzzzzzzzzzzzzzzzzzzzzzzzzzzzzzzzzzzzzzzzzzzzzzzzzzzzzzzzzzzzzzzzzzzzzzzzzzzzzzzzzzzzzzzzzzzzzzzzzzzzzzzzzzzzzzzzzzzzzz+++++++++++++++++++++++++++++++++...
(PID.TID 0000.0001) //      3 +...+++++++++++++++++++++++++++++++++++++++++++++++++zzzzzzzzzzzzzzzzzzzzzzzzzzzzzzzzzzzzzzzzzzzzzzzzzzzzzzzzzzzzzzzzzzzzzzzzzzzzzzzzzzzzzzzzzzzzzzzzzzzzzzzzzzzzzzzzzzzzzzzzzzzzzzzzzzzzzzzzzzzzzzzzzzz+++++++++++++++++++++++++++++++++++++++++++++++++...
(PID.TID 0000.0001) //      2 +...+++++++++++++++++++++++++++++++++++++++++++++++++++++++++++++++++++++++++++++++++++++++++++++++++++++++++++++++++++++++++++++++++++++++++++++++++++++++++++++++++++++++++++++++++++++++++++++++++++++++++++++++++++++++++++++++++++++++++++++++++++++...
(PID.TID 0000.0001) //      1 ............................................................................................................................................................................................................................................................
(PID.TID 0000.0001) //      0 ............................................................................................................................................................................................................................................................
(PID.TID 0000.0001) //     -1 +...+++++++++++++++++++++++++++++++++++++++++++++++++++++++++++++++++++++++++++++++++++++++++++++++++++++++++++++++++++++++++++++++++++++++++++++++++++++++++++++++++++++++++++++++++++++++++++++++++++++++++++++++++++++++++++++++++++++++++++++++++++++...
(PID.TID 0000.0001) // =======================================================
(PID.TID 0000.0001) // END OF FIELD                                          =
(PID.TID 0000.0001) // =======================================================
(PID.TID 0000.0001) 
(PID.TID 0000.0001) // =======================================================
(PID.TID 0000.0001) // Field hFacS at iteration          0
(PID.TID 0000.0001) // CMIN =          9.000040039062500E-01
(PID.TID 0000.0001) // CMAX =          9.999398437500000E-01
(PID.TID 0000.0001) // CINT =          3.701327401620370E-03
(PID.TID 0000.0001) // SYMBOLS (CMIN->CMAX): -abcdefghijklmnopqrstuvwxyz+
(PID.TID 0000.0001) //                  0.0: .
(PID.TID 0000.0001) // RANGE I (Lo:Hi:Step):(    -1:   250:     1)
(PID.TID 0000.0001) // RANGE J (Lo:Hi:Step):(   250:    -1:    -1)
(PID.TID 0000.0001) // RANGE K (Lo:Hi:Step):(   1:   1:   1)
(PID.TID 0000.0001) // =======================================================
(PID.TID 0000.0001) K =   1
(PID.TID 0000.0001) //                I=8       I=18      I=28      I=38      I=48      I=58      I=68      I=78      I=88      I=98      I=108     I=118     I=128     I=138     I=148     I=158     I=168     I=178     I=188     I=198     I=208     I=218     I=228     I=238     I=248
(PID.TID 0000.0001) // |--J--|101234567|901234567|901234567|901234567|901234567|901234567|901234567|901234567|901234567|901234567|901234567|901234567|901234567|901234567|901234567|901234567|901234567|901234567|901234567|901234567|901234567|901234567|901234567|901234567|901234567|90
(PID.TID 0000.0001) //    250 ............................................................................................................................................................................................................................................................
(PID.TID 0000.0001) //    249 ............................................................................................................................................................................................................................................................
(PID.TID 0000.0001) //    248 ............................................................................................................................................................................................................................................................
(PID.TID 0000.0001) //    247 +..++++++++++++++++++++++++++++++++++++++++++++++++++zzzzzzzzzzzzzzzzzzzzzzzzzzzzzzzzzzzzzzzzzzzzzzzzzzzzzzzzzzzzzzzzzzzzzzzzzzzzzzzzzzzzzzzzzzzzzzzzzzzzzzzzzzzzzzzzzzzzzzzzzzzzzzzzzzzzzzzzzzzzzzzzzz++++++++++++++++++++++++++++++++++++++++++++++++++..+
(PID.TID 0000.0001) //    246 +..++++++++++++++++++++++++++++++++++zzzzzzzzzzzzzzzzzzzzzzzzzzzzzzzzzzzzzzzzzzzzzzzzzzzzzzzzzzzzzzzzzzzzzzzzzzzzzzzzzzzzzzzzzzzzzzzzzzzzzzzzzzzzzzzzzzzzzzzzzzzzzzzzzzzzzzzzzzzzzzzzzzzzzzzzzzzzzzzzzzzzzzzzzzzzzzzzzz++++++++++++++++++++++++++++++++++..+
(PID.TID 0000.0001) //    245 +..++++++++++++++++++++++++++zzzzzzzzzzzzzzzzzzzzzzzzzzzzzzzzzzzzzzzzzzzzzzzzzzzzzzzzzzzzzzzzzzzzzzzzzzzzzzzzzzzyyyyyyyyyyyyyyyyyyyyyyyyyyyyzzzzzzzzzzzzzzzzzzzzzzzzzzzzzzzzzzzzzzzzzzzzzzzzzzzzzzzzzzzzzzzzzzzzzzzzzzzzzzzzzzz++++++++++++++++++++++++++..+
(PID.TID 0000.0001) //    244 +..+++++++++++++++++++++zzzzzzzzzzzzzzzzzzzzzzzzzzzzzzzzzzzzzzzzzzzzzzzzzzzzyyyyyyyyyyyyyyyyyyyyyyyyyyyyyyyyyyyyyyyyyyyyyyyyyyyyyyyyyyyyyyyyyyyyyyyyyyyyyyyyyyyyyyyyyyyyyyyyyyyyzzzzzzzzzzzzzzzzzzzzzzzzzzzzzzzzzzzzzzzzzzzzzzzzzzzz+++++++++++++++++++++..+
(PID.TID 0000.0001) //    243 +..++++++++++++++++++zzzzzzzzzzzzzzzzzzzzzzzzzzzzzzzzzzzzzzzzyyyyyyyyyyyyyyyyyyyyyyyyyyyyyyyyyyyyyyyyyyyyyyyyyyyyyyyyyyyyyyyyyyyyyyyyyyyyyyyyyyyyyyyyyyyyyyyyyyyyyyyyyyyyyyyyyyyyyyyyyyyyyyyyyyzzzzzzzzzzzzzzzzzzzzzzzzzzzzzzzzzzzzzzzz++++++++++++++++++..+
(PID.TID 0000.0001) //    242 +..+++++++++++++++zzzzzzzzzzzzzzzzzzzzzzzzzzzzzzzzzzyyyyyyyyyyyyyyyyyyyyyyyyyyyyyyyyyyyyyyyyyyyyyyyyyyyyyyyyyyyxxxxxxxxxxxxxxxxxxxxxxxxxxxxxxyyyyyyyyyyyyyyyyyyyyyyyyyyyyyyyyyyyyyyyyyyyyyyyyyyyyyyyyyyyzzzzzzzzzzzzzzzzzzzzzzzzzzzzzzzzzz+++++++++++++++..+
(PID.TID 0000.0001) //    241 +..+++++++++++++zzzzzzzzzzzzzzzzzzzzzzzzzzzzzyyyyyyyyyyyyyyyyyyyyyyyyyyyyyyyyyyyyyyyyxxxxxxxxxxxxxxxxxxxxxxxxxxxxxxxxxxxxxxxxxxxxxxxxxxxxxxxxxxxxxxxxxxxxxxxxxxxxxxxxxxyyyyyyyyyyyyyyyyyyyyyyyyyyyyyyyyyyyyyyyyzzzzzzzzzzzzzzzzzzzzzzzzzzzzz+++++++++++++..+
(PID.TID 0000.0001) //    240 +..++++++++++++zzzzzzzzzzzzzzzzzzzzzzzzzyyyyyyyyyyyyyyyyyyyyyyyyyyyyyyyyxxxxxxxxxxxxxxxxxxxxxxxxxxxxxxxxxxxxxxxxxxxxxxxxxxxxxxxxxxxxxxxxxxxxxxxxxxxxxxxxxxxxxxxxxxxxxxxxxxxxxxxxxxxxyyyyyyyyyyyyyyyyyyyyyyyyyyyyyyyyzzzzzzzzzzzzzzzzzzzzzzzzz++++++++++++..+
(PID.TID 0000.0001) //    239 +..++++++++++zzzzzzzzzzzzzzzzzzzzzzzyyyyyyyyyyyyyyyyyyyyyyyyyyyxxxxxxxxxxxxxxxxxxxxxxxxxxxxxxxxxxxxxxxxxxxxxxxxwwwwwwwwwwwwwwwwwwwwwwwwwwwwwwxxxxxxxxxxxxxxxxxxxxxxxxxxxxxxxxxxxxxxxxxxxxxxxxyyyyyyyyyyyyyyyyyyyyyyyyyyyzzzzzzzzzzzzzzzzzzzzzzz++++++++++..+
(PID.TID 0000.0001) //    238 +..+++++++++zzzzzzzzzzzzzzzzzzzzzyyyyyyyyyyyyyyyyyyyyyyyyxxxxxxxxxxxxxxxxxxxxxxxxxxxxxxxxxwwwwwwwwwwwwwwwwwwwwwwwwwwwwwwwwwwwwwwwwwwwwwwwwwwwwwwwwwwwwwwwwwwwwwwwwxxxxxxxxxxxxxxxxxxxxxxxxxxxxxxxxxyyyyyyyyyyyyyyyyyyyyyyyyzzzzzzzzzzzzzzzzzzzzz+++++++++..+
(PID.TID 0000.0001) //    237 +..+++++++++zzzzzzzzzzzzzzzzzzzyyyyyyyyyyyyyyyyyyyyyxxxxxxxxxxxxxxxxxxxxxxxxxxxwwwwwwwwwwwwwwwwwwwwwwwwwwwwwwwwwwwwwwwwwwwwwwwwwwwwwwwwwwwwwwwwwwwwwwwwwwwwwwwwwwwwwwwwwwwwwwxxxxxxxxxxxxxxxxxxxxxxxxxxxyyyyyyyyyyyyyyyyyyyyyzzzzzzzzzzzzzzzzzzz+++++++++..+
(PID.TID 0000.0001) //    236 +..++++++++zzzzzzzzzzzzzzzzzzyyyyyyyyyyyyyyyyyyyxxxxxxxxxxxxxxxxxxxxxxxwwwwwwwwwwwwwwwwwwwwwwwwwwwwwwwwwwwwwwwwvvvvvvvvvvvvvvvvvvvvvvvvvvvvvvwwwwwwwwwwwwwwwwwwwwwwwwwwwwwwwwwwwwwwwwxxxxxxxxxxxxxxxxxxxxxxxyyyyyyyyyyyyyyyyyyyzzzzzzzzzzzzzzzzzz++++++++..+
(PID.TID 0000.0001) //    235 +..+++++++zzzzzzzzzzzzzzzzzyyyyyyyyyyyyyyyyyxxxxxxxxxxxxxxxxxxxxxwwwwwwwwwwwwwwwwwwwwwwwwwwwwvvvvvvvvvvvvvvvvvvvvvvvvvvvvvvvvvvvvvvvvvvvvvvvvvvvvvvvvvvvvvvvvvvwwwwwwwwwwwwwwwwwwwwwwwwwwwwxxxxxxxxxxxxxxxxxxxxxyyyyyyyyyyyyyyyyyzzzzzzzzzzzzzzzzz+++++++..+
(PID.TID 0000.0001) //    234 +..+++++++zzzzzzzzzzzzzzzyyyyyyyyyyyyyyyyxxxxxxxxxxxxxxxxxxxwwwwwwwwwwwwwwwwwwwwwwwvvvvvvvvvvvvvvvvvvvvvvvvvvvvvvvvvvvvvvvvvvvvvvvvvvvvvvvvvvvvvvvvvvvvvvvvvvvvvvvvvvvvvvwwwwwwwwwwwwwwwwwwwwwwwxxxxxxxxxxxxxxxxxxxyyyyyyyyyyyyyyyyzzzzzzzzzzzzzzz+++++++..+
(PID.TID 0000.0001) //    233 +..++++++zzzzzzzzzzzzzzzyyyyyyyyyyyyyyyxxxxxxxxxxxxxxxxxwwwwwwwwwwwwwwwwwwwwvvvvvvvvvvvvvvvvvvvvvvvvvvvvvvvvvvvvuuuuuuuuuuuuuuuuuuuuuuuuuuuuvvvvvvvvvvvvvvvvvvvvvvvvvvvvvvvvvvvvwwwwwwwwwwwwwwwwwwwwxxxxxxxxxxxxxxxxxyyyyyyyyyyyyyyyzzzzzzzzzzzzzzz++++++..+
(PID.TID 0000.0001) //    232 +..++++++zzzzzzzzzzzzzyyyyyyyyyyyyyyyxxxxxxxxxxxxxxxwwwwwwwwwwwwwwwwwwvvvvvvvvvvvvvvvvvvvvvvvvvvuuuuuuuuuuuuuuuuuuuuuuuuuuuuuuuuuuuuuuuuuuuuuuuuuuuuuuuuuuuuvvvvvvvvvvvvvvvvvvvvvvvvvvwwwwwwwwwwwwwwwwwwxxxxxxxxxxxxxxxyyyyyyyyyyyyyyyzzzzzzzzzzzzz++++++..+
(PID.TID 0000.0001) //    231 +..++++++zzzzzzzzzzzzyyyyyyyyyyyyyyxxxxxxxxxxxxxxwwwwwwwwwwwwwwwwvvvvvvvvvvvvvvvvvvvvvvuuuuuuuuuuuuuuuuuuuuuuuuuuuuuuuuuuuuuuuuuuuuuuuuuuuuuuuuuuuuuuuuuuuuuuuuuuuuuuvvvvvvvvvvvvvvvvvvvvvvwwwwwwwwwwwwwwwwxxxxxxxxxxxxxxyyyyyyyyyyyyyyzzzzzzzzzzzz++++++..+
(PID.TID 0000.0001) //    230 +..+++++zzzzzzzzzzzzyyyyyyyyyyyyyxxxxxxxxxxxxxwwwwwwwwwwwwwwwvvvvvvvvvvvvvvvvvvvuuuuuuuuuuuuuuuuuuuuuuuuuuuuuuuuuttttttttttttttttttttttttttuuuuuuuuuuuuuuuuuuuuuuuuuuuuuuuuuvvvvvvvvvvvvvvvvvvvwwwwwwwwwwwwwwwxxxxxxxxxxxxxyyyyyyyyyyyyyzzzzzzzzzzzz+++++..+
(PID.TID 0000.0001) //    229 +..+++++zzzzzzzzzzzyyyyyyyyyyyyxxxxxxxxxxxxxwwwwwwwwwwwwwwvvvvvvvvvvvvvvvvvuuuuuuuuuuuuuuuuuuuuuuuttttttttttttttttttttttttttttttttttttttttttttttttttttttttuuuuuuuuuuuuuuuuuuuuuuuvvvvvvvvvvvvvvvvvwwwwwwwwwwwwwwxxxxxxxxxxxxxyyyyyyyyyyyyzzzzzzzzzzz+++++..+
(PID.TID 0000.0001) //    228 +..+++++zzzzzzzzzzzyyyyyyyyyyyxxxxxxxxxxxxwwwwwwwwwwwwwvvvvvvvvvvvvvvvuuuuuuuuuuuuuuuuuuuuttttttttttttttttttttttttttttttttttttttttttttttttttttttttttttttttttttttttuuuuuuuuuuuuuuuuuuuuvvvvvvvvvvvvvvvwwwwwwwwwwwwwxxxxxxxxxxxxyyyyyyyyyyyzzzzzzzzzzz+++++..+
(PID.TID 0000.0001) //    227 +..++++zzzzzzzzzzzyyyyyyyyyyyxxxxxxxxxxxwwwwwwwwwwwwvvvvvvvvvvvvvvuuuuuuuuuuuuuuuuutttttttttttttttttttttttttttttttsssssssssssssssssssssssstttttttttttttttttttttttttttttttuuuuuuuuuuuuuuuuuvvvvvvvvvvvvvvwwwwwwwwwwwwxxxxxxxxxxxyyyyyyyyyyyzzzzzzzzzzz++++..+
(PID.TID 0000.0001) //    226 +..++++zzzzzzzzzzyyyyyyyyyyyxxxxxxxxxxwwwwwwwwwwwwvvvvvvvvvvvvvuuuuuuuuuuuuuuutttttttttttttttttttttttsssssssssssssssssssssssssssssssssssssssssssssssssstttttttttttttttttttttttuuuuuuuuuuuuuuuvvvvvvvvvvvvvwwwwwwwwwwwwxxxxxxxxxxyyyyyyyyyyyzzzzzzzzzz++++..+
(PID.TID 0000.0001) //    225 +..++++zzzzzzzzzzyyyyyyyyyxxxxxxxxxxxwwwwwwwwwwwvvvvvvvvvvvvuuuuuuuuuuuuuuttttttttttttttttttssssssssssssssssssssssssssssssssssssssssssssssssssssssssssssssssssssttttttttttttttttttuuuuuuuuuuuuuuvvvvvvvvvvvvwwwwwwwwwwwxxxxxxxxxxxyyyyyyyyyzzzzzzzzzz++++..+
(PID.TID 0000.0001) //    224 +..++++zzzzzzzzzyyyyyyyyyyxxxxxxxxxwwwwwwwwwwwvvvvvvvvvvvuuuuuuuuuuuuuttttttttttttttttsssssssssssssssssssssssssssssssrrrrrrrrrrrrrrrrrrsssssssssssssssssssssssssssssssttttttttttttttttuuuuuuuuuuuuuvvvvvvvvvvvwwwwwwwwwwwxxxxxxxxxyyyyyyyyyyzzzzzzzzz++++..+
(PID.TID 0000.0001) //    223 +..++++zzzzzzzzzyyyyyyyyyxxxxxxxxxwwwwwwwwwwvvvvvvvvvvvuuuuuuuuuuuuttttttttttttttssssssssssssssssssssssrrrrrrrrrrrrrrrrrrrrrrrrrrrrrrrrrrrrrrrrrrrrrrssssssssssssssssssssssttttttttttttttuuuuuuuuuuuuvvvvvvvvvvvwwwwwwwwwwxxxxxxxxxyyyyyyyyyzzzzzzzzz++++..+
(PID.TID 0000.0001) //    222 +..+++zzzzzzzzzyyyyyyyyyxxxxxxxxxwwwwwwwwwvvvvvvvvvvvuuuuuuuuuuutttttttttttttssssssssssssssssssrrrrrrrrrrrrrrrrrrrrrrrrrrrrrrrrrrrrrrrrrrrrrrrrrrrrrrrrrrrrrrsssssssssssssssssstttttttttttttuuuuuuuuuuuvvvvvvvvvvvwwwwwwwwwxxxxxxxxxyyyyyyyyyzzzzzzzzz+++..+
(PID.TID 0000.0001) //    221 +..+++zzzzzzzzzyyyyyyyyxxxxxxxxxwwwwwwwwwvvvvvvvvvvuuuuuuuuuutttttttttttttsssssssssssssssrrrrrrrrrrrrrrrrrrrrrrrrrrrrrrrqqqqqqqqqqqqrrrrrrrrrrrrrrrrrrrrrrrrrrrrrrrssssssssssssssstttttttttttttuuuuuuuuuuvvvvvvvvvvwwwwwwwwwxxxxxxxxxyyyyyyyyzzzzzzzzz+++..+
(PID.TID 0000.0001) //    220 +..+++zzzzzzzzyyyyyyyyxxxxxxxxxwwwwwwwwwvvvvvvvvvuuuuuuuuuutttttttttttssssssssssssssrrrrrrrrrrrrrrrrrrrrrqqqqqqqqqqqqqqqqqqqqqqqqqqqqqqqqqqqqqqqqqqrrrrrrrrrrrrrrrrrrrrrsssssssssssssstttttttttttuuuuuuuuuuvvvvvvvvvwwwwwwwwwxxxxxxxxxyyyyyyyyzzzzzzzz+++..+
(PID.TID 0000.0001) //    219 +..+++zzzzzzzzyyyyyyyyxxxxxxxxwwwwwwwwvvvvvvvvvuuuuuuuuuutttttttttttssssssssssssrrrrrrrrrrrrrrrrrqqqqqqqqqqqqqqqqqqqqqqqqqqqqqqqqqqqqqqqqqqqqqqqqqqqqqqqqqqrrrrrrrrrrrrrrrrrsssssssssssstttttttttttuuuuuuuuuuvvvvvvvvvwwwwwwwwxxxxxxxxyyyyyyyyzzzzzzzz+++..+
(PID.TID 0000.0001) //    218 +..+++zzzzzzzyyyyyyyyxxxxxxxxwwwwwwwwvvvvvvvvvuuuuuuuuuttttttttttssssssssssssrrrrrrrrrrrrrrrqqqqqqqqqqqqqqqqqqqqqqqqqqqqqqqqqqqqqqqqqqqqqqqqqqqqqqqqqqqqqqqqqqqqrrrrrrrrrrrrrrrssssssssssssttttttttttuuuuuuuuuvvvvvvvvvwwwwwwwwxxxxxxxxyyyyyyyyzzzzzzz+++..+
(PID.TID 0000.0001) //    217 +..+++zzzzzzzyyyyyyyyxxxxxxxwwwwwwwwvvvvvvvvuuuuuuuuuttttttttttsssssssssssrrrrrrrrrrrrrqqqqqqqqqqqqqqqqqqqqqppppppppppppppppppppppppppppppppppppqqqqqqqqqqqqqqqqqqqqqrrrrrrrrrrrrrsssssssssssttttttttttuuuuuuuuuvvvvvvvvwwwwwwwwxxxxxxxyyyyyyyyzzzzzzz+++..+
(PID.TID 0000.0001) //    216 +..+++zzzzzzzyyyyyyyxxxxxxxwwwwwwwwvvvvvvvvuuuuuuuuttttttttttssssssssssrrrrrrrrrrrrqqqqqqqqqqqqqqqqqppppppppppppppppppppppppppppppppppppppppppppppppppppqqqqqqqqqqqqqqqqqrrrrrrrrrrrrssssssssssttttttttttuuuuuuuuvvvvvvvvwwwwwwwwxxxxxxxyyyyyyyzzzzzzz+++..+
(PID.TID 0000.0001) //    215 +..+++zzzzzzyyyyyyyyxxxxxxxwwwwwwwvvvvvvvvuuuuuuuutttttttttsssssssssrrrrrrrrrrrrqqqqqqqqqqqqqqppppppppppppppppppppppppppppppppppppppppppppppppppppppppppppppppqqqqqqqqqqqqqqrrrrrrrrrrrrssssssssstttttttttuuuuuuuuvvvvvvvvwwwwwwwxxxxxxxyyyyyyyyzzzzzz+++..+
(PID.TID 0000.0001) //    214 +..++zzzzzzzyyyyyyyxxxxxxxwwwwwwwvvvvvvvvuuuuuuutttttttttsssssssssrrrrrrrrrrrqqqqqqqqqqqqqppppppppppppppppppppooooooooooooooooooooooooooooooooppppppppppppppppppppqqqqqqqqqqqqqrrrrrrrrrrrssssssssstttttttttuuuuuuuvvvvvvvvwwwwwwwxxxxxxxyyyyyyyzzzzzzz++..+
(PID.TID 0000.0001) //    213 +..++zzzzzzzyyyyyyyxxxxxxwwwwwwwvvvvvvvvuuuuuuuttttttttsssssssssrrrrrrrrrrqqqqqqqqqqqqppppppppppppppppooooooooooooooooooooooooooooooooooooooooooooooooppppppppppppppppqqqqqqqqqqqqrrrrrrrrrrsssssssssttttttttuuuuuuuvvvvvvvvwwwwwwwxxxxxxyyyyyyyzzzzzzz++..+
(PID.TID 0000.0001) //    212 +..++zzzzzzzyyyyyyxxxxxxxwwwwwwwvvvvvvvuuuuuuuttttttttssssssssrrrrrrrrrqqqqqqqqqqqpppppppppppppppoooooooooooooooooooooooooooooooooooooooooooooooooooooooooopppppppppppppppqqqqqqqqqqqrrrrrrrrrssssssssttttttttuuuuuuuvvvvvvvwwwwwwwxxxxxxxyyyyyyzzzzzzz++..+
(PID.TID 0000.0001) //    211 +..++zzzzzzyyyyyyyxxxxxxwwwwwwwvvvvvvvuuuuuuutttttttssssssssrrrrrrrrrqqqqqqqqqqpppppppppppppoooooooooooooooooooooonnnnnnnnnnnnnnnnnnnnnnnnoooooooooooooooooooooopppppppppppppqqqqqqqqqqrrrrrrrrrsssssssstttttttuuuuuuuvvvvvvvwwwwwwwxxxxxxyyyyyyyzzzzzz++..+
(PID.TID 0000.0001) //    210 +..++zzzzzzyyyyyyxxxxxxxwwwwwwvvvvvvvuuuuuuutttttttssssssssrrrrrrrrqqqqqqqqqqpppppppppppooooooooooooooooonnnnnnnnnnnnnnnnnnnnnnnnnnnnnnnnnnnnnnnnnnooooooooooooooooopppppppppppqqqqqqqqqqrrrrrrrrsssssssstttttttuuuuuuuvvvvvvvwwwwwwxxxxxxxyyyyyyzzzzzz++..+
(PID.TID 0000.0001) //    209 +..++zzzzzzyyyyyyxxxxxxwwwwwwvvvvvvvuuuuuuutttttttsssssssrrrrrrrrqqqqqqqqqpppppppppppoooooooooooooonnnnnnnnnnnnnnnnnnnnnnnnnnnnnnnnnnnnnnnnnnnnnnnnnnnnnnoooooooooooooopppppppppppqqqqqqqqqrrrrrrrrssssssstttttttuuuuuuuvvvvvvvwwwwwwxxxxxxyyyyyyzzzzzz++..+
(PID.TID 0000.0001) //    208 +..++zzzzzzyyyyyyxxxxxxwwwwwwvvvvvvuuuuuuuttttttssssssssrrrrrrrqqqqqqqqqppppppppppooooooooooooonnnnnnnnnnnnnnnnnnnnnnnnnmmmmmmmmmmmmnnnnnnnnnnnnnnnnnnnnnnnnnoooooooooooooppppppppppqqqqqqqqqrrrrrrrssssssssttttttuuuuuuuvvvvvvwwwwwwxxxxxxyyyyyyzzzzzz++..+
(PID.TID 0000.0001) //    207 +..++zzzzzzyyyyyxxxxxxwwwwwwvvvvvvuuuuuuuttttttsssssssrrrrrrrrqqqqqqqqpppppppppoooooooooooonnnnnnnnnnnnnnnnnnmmmmmmmmmmmmmmmmmmmmmmmmmmmmmmmmmmnnnnnnnnnnnnnnnnnnoooooooooooopppppppppqqqqqqqqrrrrrrrrsssssssttttttuuuuuuuvvvvvvwwwwwwxxxxxxyyyyyzzzzzz++..+
(PID.TID 0000.0001) //    206 +..++zzzzzyyyyyyxxxxxxwwwwwwvvvvvvuuuuuuttttttsssssssrrrrrrrqqqqqqqqpppppppppooooooooooonnnnnnnnnnnnnnmmmmmmmmmmmmmmmmmmmmmmmmmmmmmmmmmmmmmmmmmmmmmmmmnnnnnnnnnnnnnnooooooooooopppppppppqqqqqqqqrrrrrrrsssssssttttttuuuuuuvvvvvvwwwwwwxxxxxxyyyyyyzzzzz++..+
(PID.TID 0000.0001) //    205 +..++zzzzzyyyyyyxxxxxwwwwwwvvvvvvuuuuuuttttttsssssssrrrrrrrqqqqqqqpppppppppoooooooooonnnnnnnnnnnnnmmmmmmmmmmmmmmmmmmmmmmmmmmmmmmmmmmmmmmmmmmmmmmmmmmmmmmmmnnnnnnnnnnnnnoooooooooopppppppppqqqqqqqrrrrrrrsssssssttttttuuuuuuvvvvvvwwwwwwxxxxxyyyyyyzzzzz++..+
(PID.TID 0000.0001) //    204 +..++zzzzzyyyyyyxxxxxwwwwwwvvvvvuuuuuuttttttsssssssrrrrrrqqqqqqqqppppppppooooooooonnnnnnnnnnnnmmmmmmmmmmmmmmmmmmmllllllllllllllllllllllllllmmmmmmmmmmmmmmmmmmmnnnnnnnnnnnnoooooooooppppppppqqqqqqqqrrrrrrsssssssttttttuuuuuuvvvvvwwwwwwxxxxxyyyyyyzzzzz++..+
(PID.TID 0000.0001) //    203 +..++zzzzzyyyyyxxxxxxwwwwwvvvvvvuuuuuttttttsssssssrrrrrrqqqqqqqppppppppooooooooonnnnnnnnnnmmmmmmmmmmmmmmmmllllllllllllllllllllllllllllllllllllllllmmmmmmmmmmmmmmmmnnnnnnnnnnoooooooooppppppppqqqqqqqrrrrrrsssssssttttttuuuuuvvvvvvwwwwwxxxxxxyyyyyzzzzz++..+
(PID.TID 0000.0001) //    202 +..++zzzzzyyyyyxxxxxwwwwwwvvvvvuuuuuuttttttssssssrrrrrrqqqqqqqpppppppooooooooonnnnnnnnnnmmmmmmmmmmmmmllllllllllllllllllllllllllllllllllllllllllllllllllmmmmmmmmmmmmmnnnnnnnnnnooooooooopppppppqqqqqqqrrrrrrssssssttttttuuuuuuvvvvvwwwwwwxxxxxyyyyyzzzzz++..+
(PID.TID 0000.0001) //    201 +..++zzzzzyyyyyxxxxxwwwwwvvvvvvuuuuuttttttssssssrrrrrrqqqqqqqpppppppoooooooonnnnnnnnnmmmmmmmmmmmmllllllllllllllllllllllkkkkkkkkkkkkkkllllllllllllllllllllllmmmmmmmmmmmmnnnnnnnnnoooooooopppppppqqqqqqqrrrrrrssssssttttttuuuuuvvvvvvwwwwwxxxxxyyyyyzzzzz++..+
(PID.TID 0000.0001) //    200 +..++zzzzzyyyyyxxxxxwwwwwvvvvvuuuuuttttttssssssrrrrrrqqqqqqpppppppoooooooonnnnnnnnnmmmmmmmmmmlllllllllllllllllkkkkkkkkkkkkkkkkkkkkkkkkkkkkkkkklllllllllllllllllmmmmmmmmmmnnnnnnnnnoooooooopppppppqqqqqqrrrrrrssssssttttttuuuuuvvvvvwwwwwxxxxxyyyyyzzzzz++..+
(PID.TID 0000.0001) //    199 +..++zzzzyyyyyxxxxxwwwwwvvvvvvuuuuutttttssssssrrrrrrqqqqqqpppppppooooooonnnnnnnnmmmmmmmmmmllllllllllllllkkkkkkkkkkkkkkkkkkkkkkkkkkkkkkkkkkkkkkkkkkkkllllllllllllllmmmmmmmmmmnnnnnnnnooooooopppppppqqqqqqrrrrrrsssssstttttuuuuuvvvvvvwwwwwxxxxxyyyyyzzzz++..+
(PID.TID 0000.0001) //    198 +..+zzzzzyyyyyxxxxxwwwwwvvvvvuuuuuttttttsssssrrrrrrqqqqqqppppppoooooooonnnnnnnmmmmmmmmmmllllllllllllkkkkkkkkkkkkkkkkkkkkkkkkkkkkkkkkkkkkkkkkkkkkkkkkkkkkllllllllllllmmmmmmmmmmnnnnnnnooooooooppppppqqqqqqrrrrrrsssssttttttuuuuuvvvvvwwwwwxxxxxyyyyyzzzzz+..+
(PID.TID 0000.0001) //    197 +..+zzzzzyyyyyxxxxxwwwwwvvvvvuuuuutttttsssssrrrrrrqqqqqqppppppooooooonnnnnnnnmmmmmmmmlllllllllllkkkkkkkkkkkkkkkkkkkjjjjjjjjjjjjjjjjjjjjjjkkkkkkkkkkkkkkkkkkklllllllllllmmmmmmmmnnnnnnnnoooooooppppppqqqqqqrrrrrrssssstttttuuuuuvvvvvwwwwwxxxxxyyyyyzzzzz+..+
(PID.TID 0000.0001) //    196 +..+zzzzzyyyyyxxxxxwwwwvvvvvuuuuutttttssssssrrrrrqqqqqqppppppooooooonnnnnnnmmmmmmmmllllllllllkkkkkkkkkkkkkkkjjjjjjjjjjjjjjjjjjjjjjjjjjjjjjjjjjjjkkkkkkkkkkkkkkkllllllllllmmmmmmmmnnnnnnnoooooooppppppqqqqqqrrrrrsssssstttttuuuuuvvvvvwwwwxxxxxyyyyyzzzzz+..+
(PID.TID 0000.0001) //    195 +..+zzzzzyyyyyxxxxwwwwwvvvvvuuuuutttttsssssrrrrrqqqqqqppppppoooooonnnnnnnmmmmmmmmllllllllllkkkkkkkkkkkkkjjjjjjjjjjjjjjjjjjjjjjjjjjjjjjjjjjjjjjjjjjjjkkkkkkkkkkkkkllllllllllmmmmmmmmnnnnnnnooooooppppppqqqqqqrrrrrssssstttttuuuuuvvvvvwwwwwxxxxyyyyyzzzzz+..+
(PID.TID 0000.0001) //    194 +..+zzzzzyyyyxxxxxwwwwwvvvvuuuuutttttsssssrrrrrqqqqqqppppppoooooonnnnnnnmmmmmmmlllllllllkkkkkkkkkkkkjjjjjjjjjjjjjjjjjjjjjjjjjjjjjjjjjjjjjjjjjjjjjjjjjjjjkkkkkkkkkkkklllllllllmmmmmmmnnnnnnnooooooppppppqqqqqqrrrrrssssstttttuuuuuvvvvwwwwwxxxxxyyyyzzzzz+..+
(PID.TID 0000.0001) //    193 +..+zzzzzyyyyxxxxxwwwwvvvvvuuuuutttttsssssrrrrrqqqqqppppppoooooonnnnnnmmmmmmmmllllllllkkkkkkkkkkkjjjjjjjjjjjjjjjjjiiiiiiiiiiiiiiiiiiiiiiiijjjjjjjjjjjjjjjjjkkkkkkkkkkkllllllllmmmmmmmmnnnnnnooooooppppppqqqqqrrrrrssssstttttuuuuuvvvvvwwwwxxxxxyyyyzzzzz+..+
(PID.TID 0000.0001) //    192 +..+zzzzzyyyyxxxxxwwwwvvvvvuuuutttttsssssrrrrrqqqqqppppppoooooonnnnnnmmmmmmmllllllllkkkkkkkkkkjjjjjjjjjjjjjjiiiiiiiiiiiiiiiiiiiiiiiiiiiiiiiiiiiijjjjjjjjjjjjjjkkkkkkkkkkllllllllmmmmmmmnnnnnnooooooppppppqqqqqrrrrrssssstttttuuuuvvvvvwwwwxxxxxyyyyzzzzz+..+
(PID.TID 0000.0001) //    191 +..+zzzzzyyyyxxxxwwwwwvvvvuuuuutttttssssrrrrrqqqqqqpppppoooooonnnnnnmmmmmmmlllllllkkkkkkkkkjjjjjjjjjjjjjiiiiiiiiiiiiiiiiiiiiiiiiiiiiiiiiiiiiiiiiiiiijjjjjjjjjjjjjkkkkkkkkklllllllmmmmmmmnnnnnnoooooopppppqqqqqqrrrrrsssstttttuuuuuvvvvwwwwwxxxxyyyyzzzzz+..+
(PID.TID 0000.0001) //    190 +..+zzzzyyyyyxxxxwwwwvvvvvuuuutttttsssssrrrrrqqqqqpppppoooooonnnnnnmmmmmmllllllllkkkkkkkkjjjjjjjjjjjiiiiiiiiiiiiiiiiiiiiiiiiiiiiiiiiiiiiiiiiiiiiiiiiiiiijjjjjjjjjjjkkkkkkkkllllllllmmmmmmnnnnnnoooooopppppqqqqqrrrrrssssstttttuuuuvvvvvwwwwxxxxyyyyyzzzz+..+
(PID.TID 0000.0001) //    189 +..+zzzzyyyyyxxxxwwwwvvvvvuuuutttttssssrrrrrqqqqqpppppoooooonnnnnnmmmmmmlllllllkkkkkkkkjjjjjjjjjjiiiiiiiiiiiiiiiiihhhhhhhhhhhhhhhhhhhhhhhhiiiiiiiiiiiiiiiiijjjjjjjjjjkkkkkkkklllllllmmmmmmnnnnnnoooooopppppqqqqqrrrrrsssstttttuuuuvvvvvwwwwxxxxyyyyyzzzz+..+
(PID.TID 0000.0001) //    188 +..+zzzzyyyyxxxxxwwwwvvvvuuuuuttttsssssrrrrqqqqqpppppoooooonnnnnnmmmmmmlllllllkkkkkkkjjjjjjjjjjiiiiiiiiiiiiihhhhhhhhhhhhhhhhhhhhhhhhhhhhhhhhhhhhiiiiiiiiiiiiijjjjjjjjjjkkkkkkklllllllmmmmmmnnnnnnoooooopppppqqqqqrrrrsssssttttuuuuuvvvvwwwwxxxxxyyyyzzzz+..+
(PID.TID 0000.0001) //    187 +..+zzzzyyyyxxxxxwwwwvvvvuuuutttttssssrrrrrqqqqqpppppooooonnnnnnmmmmmmllllllkkkkkkkkjjjjjjjjiiiiiiiiiiiiihhhhhhhhhhhhhhhhhhhhhhhhhhhhhhhhhhhhhhhhhhiiiiiiiiiiiiijjjjjjjjkkkkkkkkllllllmmmmmmnnnnnnooooopppppqqqqqrrrrrsssstttttuuuuvvvvwwwwxxxxxyyyyzzzz+..+
(PID.TID 0000.0001) //    186 +..+zzzzyyyyxxxxwwwwvvvvvuuuuttttsssssrrrrqqqqqpppppooooonnnnnnmmmmmlllllllkkkkkkkjjjjjjjjiiiiiiiiiiihhhhhhhhhhhhhhhhhhhhhhhhhhhhhhhhhhhhhhhhhhhhhhhhhhiiiiiiiiiiijjjjjjjjkkkkkkklllllllmmmmmnnnnnnooooopppppqqqqqrrrrsssssttttuuuuvvvvvwwwwxxxxyyyyzzzz+..+
(PID.TID 0000.0001) //    185 +..+zzzzyyyyxxxxwwwwvvvvuuuuuttttssssrrrrrqqqqpppppooooonnnnnnmmmmmlllllllkkkkkkjjjjjjjjiiiiiiiiiiihhhhhhhhhhhhhhhhgggggggggggggggggggggghhhhhhhhhhhhhhhhiiiiiiiiiiijjjjjjjjkkkkkklllllllmmmmmnnnnnnooooopppppqqqqrrrrrssssttttuuuuuvvvvwwwwxxxxyyyyzzzz+..+
(PID.TID 0000.0001) //    184 +..+zzzzyyyyxxxxwwwwvvvvuuuutttttssssrrrrqqqqqpppppooooonnnnnmmmmmllllllkkkkkkkjjjjjjjjiiiiiiiiihhhhhhhhhhhhhhgggggggggggggggggggggggggggggggghhhhhhhhhhhhhhiiiiiiiiijjjjjjjjkkkkkkkllllllmmmmmnnnnnooooopppppqqqqqrrrrsssstttttuuuuvvvvwwwwxxxxyyyyzzzz+..+
(PID.TID 0000.0001) //    183 +..+zzzzyyyyxxxxwwwwvvvvuuuuttttssssrrrrrqqqqpppppooooonnnnnmmmmmllllllkkkkkkkjjjjjjjiiiiiiiiihhhhhhhhhhhhgggggggggggggggggggggggggggggggggggggggghhhhhhhhhhhhiiiiiiiiijjjjjjjkkkkkkkllllllmmmmmnnnnnooooopppppqqqqrrrrrssssttttuuuuvvvvwwwwxxxxyyyyzzzz+..+
(PID.TID 0000.0001) //    182 +..+zzzzyyyyxxxxwwwwvvvvuuuuttttssssrrrrqqqqqppppooooonnnnnmmmmmmlllllkkkkkkkjjjjjjjiiiiiiiihhhhhhhhhhhgggggggggggggggggggggggggggggggggggggggggggggghhhhhhhhhhhiiiiiiiijjjjjjjkkkkkkklllllmmmmmmnnnnnoooooppppqqqqqrrrrssssttttuuuuvvvvwwwwxxxxyyyyzzzz+..+
(PID.TID 0000.0001) //    181 +..+zzzzyyyyxxxxwwwvvvvuuuuttttsssssrrrrqqqqpppppooooonnnnmmmmmmlllllkkkkkkjjjjjjjiiiiiiiihhhhhhhhhhggggggggggggggggggffffffffffffffffgggggggggggggggggghhhhhhhhhhiiiiiiiijjjjjjjkkkkkklllllmmmmmmnnnnooooopppppqqqqrrrrsssssttttuuuuvvvvwwwxxxxyyyyzzzz+..+
(PID.TID 0000.0001) //    180 +..+zzzzyyyyxxxwwwwvvvvuuuuttttssssrrrrqqqqqppppooooonnnnnmmmmmlllllkkkkkkjjjjjjjiiiiiiihhhhhhhhhhggggggggggggggffffffffffffffffffffffffffffgggggggggggggghhhhhhhhhhiiiiiiijjjjjjjkkkkkklllllmmmmmnnnnnoooooppppqqqqqrrrrssssttttuuuuvvvvwwwwxxxyyyyzzzz+..+
(PID.TID 0000.0001) //    179 +..+zzzzyyyxxxxwwwwvvvvuuuuttttssssrrrrqqqqpppppoooonnnnnmmmmmlllllkkkkkkjjjjjjjiiiiiiihhhhhhhhhggggggggggggffffffffffffffffffffffffffffffffffffgggggggggggghhhhhhhhhiiiiiiijjjjjjjkkkkkklllllmmmmmnnnnnoooopppppqqqqrrrrssssttttuuuuvvvvwwwwxxxxyyyzzzz+..+
(PID.TID 0000.0001) //    178 +..+zzzzyyyxxxxwwwwvvvvuuuuttttssssrrrrqqqqppppooooonnnnmmmmmllllllkkkkkjjjjjjiiiiiiihhhhhhhhhgggggggggggffffffffffffffffffffffffffffffffffffffffffggggggggggghhhhhhhhhiiiiiiijjjjjjkkkkkllllllmmmmmnnnnoooooppppqqqqrrrrssssttttuuuuvvvvwwwwxxxxyyyzzzz+..+
(PID.TID 0000.0001) //    177 +..+zzzzyyyxxxxwwwwvvvvuuuttttssssrrrrqqqqpppppoooonnnnnmmmmmlllllkkkkkjjjjjjiiiiiiihhhhhhhhggggggggggffffffffffffffffffffffffffffffffffffffffffffffffgggggggggghhhhhhhhiiiiiiijjjjjjkkkkklllllmmmmmnnnnnoooopppppqqqqrrrrssssttttuuuvvvvwwwwxxxxyyyzzzz+..+
(PID.TID 0000.0001) //    176 +..+zzzzyyyxxxxwwwwvvvuuuuttttssssrrrrqqqqppppooooonnnnmmmmmlllllkkkkkjjjjjjiiiiiiihhhhhhhggggggggggffffffffffffffffeeeeeeeeeeeeeeeeeeeeffffffffffffffffgggggggggghhhhhhhiiiiiiijjjjjjkkkkklllllmmmmmnnnnoooooppppqqqqrrrrssssttttuuuuvvvwwwwxxxxyyyzzzz+..+
(PID.TID 0000.0001) //    175 +..+zzzyyyyxxxxwwwvvvvuuuuttttssssrrrrqqqqppppoooonnnnnmmmmlllllkkkkkkjjjjjiiiiiiihhhhhhhgggggggggffffffffffffffeeeeeeeeeeeeeeeeeeeeeeeeeeeeffffffffffffffggggggggghhhhhhhiiiiiiijjjjjkkkkkklllllmmmmnnnnnooooppppqqqqrrrrssssttttuuuuvvvvwwwxxxxyyyyzzz+..+
(PID.TID 0000.0001) //    174 +..+zzzyyyyxxxxwwwvvvvuuuutttssssrrrrqqqqppppooooonnnnmmmmmlllllkkkkkjjjjjiiiiiiihhhhhhhggggggggffffffffffffeeeeeeeeeeeeeeeeeeeeeeeeeeeeeeeeeeeeffffffffffffgggggggghhhhhhhiiiiiiijjjjjkkkkklllllmmmmmnnnnoooooppppqqqqrrrrsssstttuuuuvvvvwwwxxxxyyyyzzz+..+
(PID.TID 0000.0001) //    173 +..+zzzyyyyxxxxwwwvvvvuuuttttssssrrrrqqqqppppoooonnnnmmmmmlllllkkkkkjjjjjiiiiiihhhhhhhggggggggfffffffffffeeeeeeeeeeeeeeeeeeeeeeeeeeeeeeeeeeeeeeeeeefffffffffffgggggggghhhhhhhiiiiiijjjjjkkkkklllllmmmmmnnnnooooppppqqqqrrrrssssttttuuuvvvvwwwxxxxyyyyzzz+..+
(PID.TID 0000.0001) //    172 +..+zzzyyyyxxxwwwwvvvvuuuttttssssrrrrqqqppppooooonnnnmmmmlllllkkkkkjjjjjjiiiiihhhhhhhggggggggffffffffffeeeeeeeeeeeeeeeeeeeeeeeeeeeeeeeeeeeeeeeeeeeeeeffffffffffgggggggghhhhhhhiiiiijjjjjjkkkkklllllmmmmnnnnoooooppppqqqrrrrssssttttuuuvvvvwwwwxxxyyyyzzz+..+
(PID.TID 0000.0001) //    171 +..+zzzyyyyxxxwwwwvvvuuuuttttsssrrrrqqqqppppoooonnnnmmmmmlllllkkkkjjjjjjiiiiiihhhhhhgggggggffffffffffeeeeeeeeeeeeeeeeddddddddddddddddddeeeeeeeeeeeeeeeeffffffffffggggggghhhhhhiiiiiijjjjjjkkkklllllmmmmmnnnnooooppppqqqqrrrrsssttttuuuuvvvwwwwxxxyyyyzzz+..+
(PID.TID 0000.0001) //    170 +..+zzzyyyyxxxwwwwvvvuuuutttssssrrrrqqqqppppoooonnnnmmmmlllllkkkkkjjjjjiiiiiihhhhhhgggggggfffffffffeeeeeeeeeeeeeeddddddddddddddddddddddddddeeeeeeeeeeeeeefffffffffggggggghhhhhhiiiiiijjjjjkkkkklllllmmmmnnnnooooppppqqqqrrrrsssstttuuuuvvvwwwwxxxyyyyzzz+..+
(PID.TID 0000.0001) //    169 +..+zzzyyyyxxxwwwwvvvuuuutttssssrrrrqqqppppoooonnnnnmmmmllllkkkkkjjjjjiiiiiihhhhhhgggggggffffffffeeeeeeeeeeeeddddddddddddddddddddddddddddddddddeeeeeeeeeeeeffffffffggggggghhhhhhiiiiiijjjjjkkkkkllllmmmmnnnnnooooppppqqqrrrrsssstttuuuuvvvwwwwxxxyyyyzzz+..+
(PID.TID 0000.0001) //    168 +..+zzzyyyyxxxwwwvvvvuuuttttssssrrrqqqqppppoooonnnnmmmmlllllkkkkkjjjjjiiiiihhhhhhgggggggffffffffeeeeeeeeeeeddddddddddddddddddddddddddddddddddddddeeeeeeeeeeeffffffffggggggghhhhhhiiiiijjjjjkkkkklllllmmmmnnnnooooppppqqqqrrrssssttttuuuvvvvwwwxxxyyyyzzz+..+
(PID.TID 0000.0001) //    167 +..+zzzyyyyxxxwwwvvvvuuuttttsssrrrrqqqqppppoooonnnnmmmmllllkkkkkjjjjjiiiiihhhhhhgggggggfffffffeeeeeeeeeeeddddddddddddddddddddddddddddddddddddddddddeeeeeeeeeeefffffffggggggghhhhhhiiiiijjjjjkkkkkllllmmmmnnnnooooppppqqqqrrrrsssttttuuuvvvvwwwxxxyyyyzzz+..+
(PID.TID 0000.0001) //    166 +..+zzzyyyxxxxwwwvvvvuuuttttsssrrrrqqqqpppoooonnnnmmmmlllllkkkkjjjjjiiiiihhhhhhgggggggfffffffeeeeeeeeeeddddddddddddddddddddccccccddddddddddddddddddddeeeeeeeeeefffffffggggggghhhhhhiiiiijjjjjkkkklllllmmmmnnnnoooopppqqqqrrrrsssttttuuuvvvvwwwxxxxyyyzzz+..+
(PID.TID 0000.0001) //    165 +..+zzzyyyxxxxwwwvvvvuuutttssssrrrrqqqppppoooonnnnmmmmllllkkkkkjjjjjiiiiihhhhhgggggggfffffffeeeeeeeeedddddddddddddddccccccccccccccccccccdddddddddddddddeeeeeeeeefffffffggggggghhhhhiiiiijjjjjkkkkkllllmmmmnnnnooooppppqqqrrrrsssstttuuuvvvvwwwxxxxyyyzzz+..+
(PID.TID 0000.0001) //    164 +..+zzzyyyxxxxwwwvvvuuuutttssssrrrqqqqppppoooonnnnmmmmllllkkkkjjjjjiiiiihhhhhhggggggfffffffeeeeeeeedddddddddddddccccccccccccccccccccccccccccdddddddddddddeeeeeeeefffffffgggggghhhhhhiiiiijjjjjkkkkllllmmmmnnnnooooppppqqqqrrrsssstttuuuuvvvwwwxxxxyyyzzz+..+
(PID.TID 0000.0001) //    163 +..+zzzyyyxxxxwwwvvvuuuutttssssrrrqqqqpppoooonnnnmmmmllllkkkkkjjjjiiiiihhhhhhggggggfffffffeeeeeeeeddddddddddddccccccccccccccccccccccccccccccccddddddddddddeeeeeeeefffffffgggggghhhhhhiiiiijjjjkkkkkllllmmmmnnnnoooopppqqqqrrrsssstttuuuuvvvwwwxxxxyyyzzz+..+
(PID.TID 0000.0001) //    162 +..+zzzyyyxxxxwwwvvvuuuutttsssrrrrqqqqpppoooonnnnmmmmllllkkkkjjjjjiiiiihhhhhggggggfffffffeeeeeeeeddddddddddccccccccccccccccccccccccccccccccccccccddddddddddeeeeeeeefffffffgggggghhhhhiiiiijjjjjkkkkllllmmmmnnnnoooopppqqqqrrrrssstttuuuuvvvwwwxxxxyyyzzz+..+
(PID.TID 0000.0001) //    161 +..+zzzyyyxxxwwwwvvvuuuttttsssrrrrqqqppppoooonnnmmmmlllllkkkkjjjjiiiiihhhhhggggggfffffffeeeeeeedddddddddddccccccccccccccccccccccccccccccccccccccccdddddddddddeeeeeeefffffffgggggghhhhhiiiiijjjjkkkklllllmmmmnnnooooppppqqqrrrrsssttttuuuvvvwwwwxxxyyyzzz+..+
(PID.TID 0000.0001) //    160 +..+zzzyyyxxxwwwwvvvuuuttttsssrrrrqqqppppooonnnnmmmmllllkkkkjjjjjiiiiihhhhhgggggfffffffeeeeeeeddddddddddccccccccccccccccccccccccccccccccccccccccccccddddddddddeeeeeeefffffffggggghhhhhiiiiijjjjjkkkkllllmmmmnnnnoooppppqqqrrrrsssttttuuuvvvwwwwxxxyyyzzz+..+
(PID.TID 0000.0001) //    159 +..+zzzyyyxxxwwwwvvvuuutttssssrrrqqqqpppoooonnnnmmmmllllkkkkjjjjiiiiihhhhhggggggffffffeeeeeeedddddddddcccccccccccccccccbbbbbbbbbbbbbbcccccccccccccccccdddddddddeeeeeeeffffffgggggghhhhhiiiiijjjjkkkkllllmmmmnnnnoooopppqqqqrrrsssstttuuuvvvwwwwxxxyyyzzz+..+
(PID.TID 0000.0001) //    158 +..+zzzyyyxxxwwwvvvvuuutttssssrrrqqqqpppoooonnnnmmmllllkkkkkjjjjiiiiihhhhhgggggffffffeeeeeeedddddddddccccccccccccccbbbbbbbbbbbbbbbbbbbbbbccccccccccccccdddddddddeeeeeeeffffffggggghhhhhiiiiijjjjkkkkkllllmmmnnnnoooopppqqqqrrrsssstttuuuvvvvwwwxxxyyyzzz+..+
(PID.TID 0000.0001) //    157 +..+zzzyyyxxxwwwvvvvuuutttssssrrrqqqppppoooonnnmmmmllllkkkkjjjjjiiiihhhhhgggggffffffeeeeeeedddddddddccccccccccccbbbbbbbbbbbbbbbbbbbbbbbbbbbbccccccccccccdddddddddeeeeeeeffffffggggghhhhhiiiijjjjjkkkkllllmmmmnnnooooppppqqqrrrsssstttuuuvvvvwwwxxxyyyzzz+..+
(PID.TID 0000.0001) //    156 +..+zzzyyyxxxwwwvvvvuuutttsssrrrrqqqppppooonnnnmmmmllllkkkkjjjjiiiiihhhhhgggggffffffeeeeeeddddddddccccccccccccbbbbbbbbbbbbbbbbbbbbbbbbbbbbbbbbccccccccccccddddddddeeeeeeffffffggggghhhhhiiiiijjjjkkkkllllmmmmnnnnoooppppqqqrrrrssstttuuuvvvvwwwxxxyyyzzz+..+
(PID.TID 0000.0001) //    155 +..+zzzyyyxxxwwwvvvuuuutttsssrrrrqqqppppooonnnnmmmmlllkkkkkjjjjiiiihhhhhgggggffffffeeeeeeedddddddcccccccccccbbbbbbbbbbbbbbbbbbbbbbbbbbbbbbbbbbbbcccccccccccdddddddeeeeeeeffffffggggghhhhhiiiijjjjkkkkklllmmmmnnnnoooppppqqqrrrrssstttuuuuvvvwwwxxxyyyzzz+..+
(PID.TID 0000.0001) //    154 +..+zzzyyyxxxwwwvvvuuuutttsssrrrqqqqpppoooonnnnmmmllllkkkkjjjjiiiiihhhhhgggggfffffeeeeeeedddddddcccccccccccbbbbbbbbbbbbbbbbbbbbbbbbbbbbbbbbbbbbbbcccccccccccdddddddeeeeeeefffffggggghhhhhiiiiijjjjkkkkllllmmmnnnnoooopppqqqqrrrssstttuuuuvvvwwwxxxyyyzzz+..+
(PID.TID 0000.0001) //    153 +..+zzzyyyxxxwwwvvvuuuttttsssrrrqqqqpppoooonnnmmmmllllkkkkjjjjiiiiihhhhgggggffffffeeeeeedddddddccccccccccbbbbbbbbbbbbbbbbbbbbbbbbbbbbbbbbbbbbbbbbbbccccccccccdddddddeeeeeeffffffggggghhhhiiiiijjjjkkkkllllmmmmnnnoooopppqqqqrrrsssttttuuuvvvwwwxxxyyyzzz+..+
(PID.TID 0000.0001) //    152 +..+zzzyyyxxxwwwvvvuuuttttsssrrrqqqqpppooonnnnmmmmllllkkkkjjjjiiiihhhhhgggggfffffeeeeeeddddddddcccccccccbbbbbbbbbbbbbbbbbbbbbbbbbbbbbbbbbbbbbbbbbbbbcccccccccddddddddeeeeeefffffggggghhhhhiiiijjjjkkkkllllmmmmnnnnooopppqqqqrrrsssttttuuuvvvwwwxxxyyyzzz+..+
(PID.TID 0000.0001) //    151 +..+zzzyyyxxxwwwvvvuuuttttsssrrrqqqppppooonnnnmmmmlllkkkkjjjjiiiiihhhhgggggffffffeeeeeedddddddcccccccccbbbbbbbbbbbbbbbbaaaaaaaaaaaaaabbbbbbbbbbbbbbbbcccccccccdddddddeeeeeeffffffggggghhhhiiiiijjjjkkkklllmmmmnnnnoooppppqqqrrrsssttttuuuvvvwwwxxxyyyzzz+..+
(PID.TID 0000.0001) //    150 +..+zzzyyyxxxwwwvvvuuutttssssrrrqqqppppooonnnnmmmllllkkkkjjjjiiiihhhhhgggggfffffeeeeeedddddddcccccccccbbbbbbbbbbbbbbaaaaaaaaaaaaaaaaaaaabbbbbbbbbbbbbbcccccccccdddddddeeeeeefffffggggghhhhhiiiijjjjkkkkllllmmmnnnnoooppppqqqrrrsssstttuuuvvvwwwxxxyyyzzz+..+
(PID.TID 0000.0001) //    149 +..+zzzyyyxxxwwwvvvuuutttssssrrrqqqpppoooonnnmmmmllllkkkkjjjjiiiihhhhhggggffffffeeeeeeddddddcccccccccbbbbbbbbbbbbbaaaaaaaaaaaaaaaaaaaaaaaabbbbbbbbbbbbbcccccccccddddddeeeeeeffffffgggghhhhhiiiijjjjkkkkllllmmmmnnnoooopppqqqrrrsssstttuuuvvvwwwxxxyyyzzz+..+
(PID.TID 0000.0001) //    148 +..+zzzyyyxxxwwwvvvuuutttsssrrrrqqqpppoooonnnmmmmllllkkkkjjjjiiiihhhhgggggfffffeeeeeedddddddccccccccbbbbbbbbbbbbaaaaaaaaaaaaaaaaaaaaaaaaaaaabbbbbbbbbbbbccccccccdddddddeeeeeefffffggggghhhhiiiijjjjkkkkllllmmmmnnnoooopppqqqrrrrssstttuuuvvvwwwxxxyyyzzz+..+
(PID.TID 0000.0001) //    147 +..+zzzyyyxxxwwwvvvuuutttsssrrrrqqqpppoooonnnmmmmlllkkkkjjjjiiiiihhhhgggggfffffeeeeeeddddddccccccccbbbbbbbbbbbaaaaaaaaaaaaaaaaaaaaaaaaaaaaaaaabbbbbbbbbbbccccccccddddddeeeeeefffffggggghhhhiiiiijjjjkkkklllmmmmnnnoooopppqqqrrrrssstttuuuvvvwwwxxxyyyzzz+..+
(PID.TID 0000.0001) //    146 +..+zzzyyyxxxwwwvvvuuutttsssrrrqqqqpppooonnnnmmmmlllkkkkjjjjiiiihhhhhggggfffffeeeeeedddddddcccccccbbbbbbbbbbbaaaaaaaaaaaaaaaaaaaaaaaaaaaaaaaaaabbbbbbbbbbbcccccccdddddddeeeeeefffffgggghhhhhiiiijjjjkkkklllmmmmnnnnooopppqqqqrrrssstttuuuvvvwwwxxxyyyzzz+..+
(PID.TID 0000.0001) //    145 +..+zzzyyyxxxwwwvvvuuutttsssrrrqqqqpppooonnnnmmmllllkkkkjjjjiiiihhhhgggggfffffeeeeeeddddddccccccccbbbbbbbbbbaaaaaaaaaaaaaaaaaaaaaaaaaaaaaaaaaaaabbbbbbbbbbccccccccddddddeeeeeefffffggggghhhhiiiijjjjkkkkllllmmmnnnnooopppqqqqrrrssstttuuuvvvwwwxxxyyyzzz+..+
(PID.TID 0000.0001) //    144 +..+zzzyyyxxxwwwvvvuuutttsssrrrqqqqpppooonnnnmmmllllkkkkjjjjiiiihhhhgggggfffffeeeeeddddddccccccccbbbbbbbbbbaaaaaaaaaaaaaaaaaaaaaaaaaaaaaaaaaaaaaabbbbbbbbbbccccccccddddddeeeeefffffggggghhhhiiiijjjjkkkkllllmmmnnnnooopppqqqqrrrssstttuuuvvvwwwxxxyyyzzz+..+
(PID.TID 0000.0001) //    143 +..+zzzyyyxxxwwwvvvuuutttsssrrrqqqppppooonnnnmmmllllkkkjjjjiiiihhhhhggggfffffeeeeeeddddddcccccccbbbbbbbbbbaaaaaaaaaaaaaaaaaaaaaaaaaaaaaaaaaaaaaaaabbbbbbbbbbcccccccddddddeeeeeefffffgggghhhhhiiiijjjjkkkllllmmmnnnnoooppppqqqrrrssstttuuuvvvwwwxxxyyyzzz+..+
(PID.TID 0000.0001) //    142 +..+zzzyyyxxxwwwvvvuuutttsssrrrqqqppppooonnnmmmmllllkkkjjjjiiiihhhhhggggfffffeeeeedddddddcccccccbbbbbbbbbaaaaaaaaaaaaaaaaaaaaaaaaaaaaaaaaaaaaaaaaaabbbbbbbbbcccccccdddddddeeeeefffffgggghhhhhiiiijjjjkkkllllmmmmnnnoooppppqqqrrrssstttuuuvvvwwwxxxyyyzzz+..+
(PID.TID 0000.0001) //    141 +..+zzzyyyxxxwwwvvvuuutttsssrrrqqqpppoooonnnmmmmlllkkkkjjjjiiiihhhhgggggfffffeeeeeddddddcccccccbbbbbbbbbaaaaaaaaaaaaaaaaaaaaaaaaaaaaaaaaaaaaaaaaaaaabbbbbbbbbcccccccddddddeeeeefffffggggghhhhiiiijjjjkkkklllmmmmnnnoooopppqqqrrrssstttuuuvvvwwwxxxyyyzzz+..+
(PID.TID 0000.0001) //    140 +..+zzzyyxxxwwwvvvvuuutttsssrrrqqqpppoooonnnmmmmlllkkkkjjjjiiiihhhhgggggfffffeeeeeddddddcccccccbbbbbbbbbaaaaaaaaaaaaaaaaa----------aaaaaaaaaaaaaaaaabbbbbbbbbcccccccddddddeeeeefffffggggghhhhiiiijjjjkkkklllmmmmnnnoooopppqqqrrrssstttuuuvvvvwwwxxxyyzzz+..+
(PID.TID 0000.0001) //    139 +..+zzyyyxxxwwwvvvuuuutttsssrrrqqqpppoooonnnmmmmlllkkkkjjjjiiiihhhhggggfffffeeeeeedddddcccccccbbbbbbbbbaaaaaaaaaaaaaaaa--------------aaaaaaaaaaaaaaaabbbbbbbbbcccccccdddddeeeeeefffffgggghhhhiiiijjjjkkkklllmmmmnnnoooopppqqqrrrssstttuuuuvvvwwwxxxyyyzz+..+
(PID.TID 0000.0001) //    138 +..+zzyyyxxxwwwvvvuuuttttsssrrrqqqpppoooonnnmmmllllkkkkjjjjiiiihhhhggggfffffeeeeeddddddcccccccbbbbbbbbbaaaaaaaaaaaaaa------------------aaaaaaaaaaaaaabbbbbbbbbcccccccddddddeeeeefffffgggghhhhiiiijjjjkkkkllllmmmnnnoooopppqqqrrrsssttttuuuvvvwwwxxxyyyzz+..+
(PID.TID 0000.0001) //    137 +..+zzyyyxxxwwwvvvuuutttssssrrrqqqpppooonnnnmmmllllkkkkjjjiiiihhhhhggggfffffeeeeeddddddcccccccbbbbbbbbaaaaaaaaaaaaaa--------------------aaaaaaaaaaaaaabbbbbbbbcccccccddddddeeeeefffffgggghhhhhiiiijjjkkkkllllmmmnnnnooopppqqqrrrsssstttuuuvvvwwwxxxyyyzz+..+
(PID.TID 0000.0001) //    136 +..+zzyyyxxxwwwvvvuuutttssssrrrqqqpppooonnnnmmmllllkkkjjjjiiiihhhhgggggfffffeeeeeddddddccccccbbbbbbbbbaaaaaaaaaaaaa----------------------aaaaaaaaaaaaabbbbbbbbbccccccddddddeeeeefffffggggghhhhiiiijjjjkkkllllmmmnnnnooopppqqqrrrsssstttuuuvvvwwwxxxyyyzz+..+
(PID.TID 0000.0001) //    135 +..+zzyyyxxxwwwvvvuuutttssssrrrqqqpppooonnnnmmmllllkkkjjjjiiiihhhhgggggffffeeeeeedddddcccccccbbbbbbbbaaaaaaaaaaaaa------------------------aaaaaaaaaaaaabbbbbbbbcccccccdddddeeeeeeffffggggghhhhiiiijjjjkkkllllmmmnnnnooopppqqqrrrsssstttuuuvvvwwwxxxyyyzz+..+
(PID.TID 0000.0001) //    134 +..+zzyyyxxxwwwvvvuuutttsssrrrrqqqpppooonnnnmmmllllkkkjjjjiiiihhhhgggggffffeeeeeddddddcccccccbbbbbbbbaaaaaaaaaaaa--------------------------aaaaaaaaaaaabbbbbbbbcccccccddddddeeeeeffffggggghhhhiiiijjjjkkkllllmmmnnnnooopppqqqrrrrssstttuuuvvvwwwxxxyyyzz+..+
(PID.TID 0000.0001) //    133 +..+zzyyyxxxwwwvvvuuutttsssrrrrqqqpppooonnnnmmmllllkkkjjjjiiiihhhhggggfffffeeeeeddddddcccccccbbbbbbbbaaaaaaaaaaaa--------------------------aaaaaaaaaaaabbbbbbbbcccccccddddddeeeeefffffgggghhhhiiiijjjjkkkllllmmmnnnnooopppqqqrrrrssstttuuuvvvwwwxxxyyyzz+..+
(PID.TID 0000.0001) //    132 +..+zzyyyxxxwwwvvvuuutttsssrrrrqqqpppooonnnnmmmlllkkkkjjjjiiiihhhhggggfffffeeeeeddddddccccccbbbbbbbbaaaaaaaaaaaa----------------------------aaaaaaaaaaaabbbbbbbbccccccddddddeeeeefffffgggghhhhiiiijjjjkkkklllmmmnnnnooopppqqqrrrrssstttuuuvvvwwwxxxyyyzz+..+
(PID.TID 0000.0001) //    131 +..+zzyyyxxxwwwvvvuuutttsssrrrqqqqpppooonnnmmmmlllkkkkjjjjiiiihhhhggggfffffeeeeeddddddccccccbbbbbbbbaaaaaaaaaaaa----------------------------aaaaaaaaaaaabbbbbbbbccccccddddddeeeeefffffgggghhhhiiiijjjjkkkklllmmmmnnnooopppqqqqrrrssstttuuuvvvwwwxxxyyyzz+..+
(PID.TID 0000.0001) //    130 +..+zzyyyxxxwwwvvvuuutttsssrrrqqqqpppooonnnmmmmlllkkkkjjjjiiiihhhhggggfffffeeeeeddddddccccccbbbbbbbbaaaaaaaaaaa------------------------------aaaaaaaaaaabbbbbbbbccccccddddddeeeeefffffgggghhhhiiiijjjjkkkklllmmmmnnnooopppqqqqrrrssstttuuuvvvwwwxxxyyyzz+..+
(PID.TID 0000.0001) //    129 +..+zzyyyxxxwwwvvvuuutttsssrrrqqqqpppooonnnmmmmlllkkkkjjjjiiiihhhhggggfffffeeeeeddddddccccccbbbbbbbbaaaaaaaaaaa------------------------------aaaaaaaaaaabbbbbbbbccccccddddddeeeeefffffgggghhhhiiiijjjjkkkklllmmmmnnnooopppqqqqrrrssstttuuuvvvwwwxxxyyyzz+..+
(PID.TID 0000.0001) //    128 +..+zzyyyxxxwwwvvvuuutttsssrrrqqqqpppooonnnmmmmlllkkkkjjjjiiiihhhhggggfffffeeeeedddddcccccccbbbbbbbbaaaaaaaaaaa------------------------------aaaaaaaaaaabbbbbbbbcccccccdddddeeeeefffffgggghhhhiiiijjjjkkkklllmmmmnnnooopppqqqqrrrssstttuuuvvvwwwxxxyyyzz+..+
(PID.TID 0000.0001) //    127 +..+zzyyyxxxwwwvvvuuutttsssrrrqqqqpppooonnnmmmmlllkkkkjjjjiiiihhhhggggfffffeeeeedddddcccccccbbbbbbbbaaaaaaaaaaa------------------------------aaaaaaaaaaabbbbbbbbcccccccdddddeeeeefffffgggghhhhiiiijjjjkkkklllmmmmnnnooopppqqqqrrrssstttuuuvvvwwwxxxyyyzz+..+
(PID.TID 0000.0001) //    126 +..+zzyyyxxxwwwvvvuuutttsssrrrqqqqpppooonnnmmmmlllkkkkjjjjiiiihhhhggggfffffeeeeedddddcccccccbbbbbbbbaaaaaaaaaaa------------------------------aaaaaaaaaaabbbbbbbbcccccccdddddeeeeefffffgggghhhhiiiijjjjkkkklllmmmmnnnooopppqqqqrrrssstttuuuvvvwwwxxxyyyzz+..+
(PID.TID 0000.0001) //    125 +..+zzyyyxxxwwwvvvuuutttsssrrrqqqqpppooonnnmmmmlllkkkkjjjjiiiihhhhggggfffffeeeeedddddcccccccbbbbbbbbaaaaaaaaaaa------------------------------aaaaaaaaaaabbbbbbbbcccccccdddddeeeeefffffgggghhhhiiiijjjjkkkklllmmmmnnnooopppqqqqrrrssstttuuuvvvwwwxxxyyyzz+..+
(PID.TID 0000.0001) //    124 +..+zzyyyxxxwwwvvvuuutttsssrrrqqqqpppooonnnmmmmlllkkkkjjjjiiiihhhhggggfffffeeeeedddddcccccccbbbbbbbbaaaaaaaaaaa------------------------------aaaaaaaaaaabbbbbbbbcccccccdddddeeeeefffffgggghhhhiiiijjjjkkkklllmmmmnnnooopppqqqqrrrssstttuuuvvvwwwxxxyyyzz+..+
(PID.TID 0000.0001) //    123 +..+zzyyyxxxwwwvvvuuutttsssrrrqqqqpppooonnnmmmmlllkkkkjjjjiiiihhhhggggfffffeeeeedddddcccccccbbbbbbbbaaaaaaaaaaa------------------------------aaaaaaaaaaabbbbbbbbcccccccdddddeeeeefffffgggghhhhiiiijjjjkkkklllmmmmnnnooopppqqqqrrrssstttuuuvvvwwwxxxyyyzz+..+
(PID.TID 0000.0001) //    122 +..+zzyyyxxxwwwvvvuuutttsssrrrqqqqpppooonnnmmmmlllkkkkjjjjiiiihhhhggggfffffeeeeedddddcccccccbbbbbbbbaaaaaaaaaaa------------------------------aaaaaaaaaaabbbbbbbbcccccccdddddeeeeefffffgggghhhhiiiijjjjkkkklllmmmmnnnooopppqqqqrrrssstttuuuvvvwwwxxxyyyzz+..+
(PID.TID 0000.0001) //    121 +..+zzyyyxxxwwwvvvuuutttsssrrrqqqqpppooonnnmmmmlllkkkkjjjjiiiihhhhggggfffffeeeeeddddddccccccbbbbbbbbaaaaaaaaaaa------------------------------aaaaaaaaaaabbbbbbbbccccccddddddeeeeefffffgggghhhhiiiijjjjkkkklllmmmmnnnooopppqqqqrrrssstttuuuvvvwwwxxxyyyzz+..+
(PID.TID 0000.0001) //    120 +..+zzyyyxxxwwwvvvuuutttsssrrrqqqqpppooonnnmmmmlllkkkkjjjjiiiihhhhggggfffffeeeeeddddddccccccbbbbbbbbaaaaaaaaaaa------------------------------aaaaaaaaaaabbbbbbbbccccccddddddeeeeefffffgggghhhhiiiijjjjkkkklllmmmmnnnooopppqqqqrrrssstttuuuvvvwwwxxxyyyzz+..+
(PID.TID 0000.0001) //    119 +..+zzyyyxxxwwwvvvuuutttsssrrrqqqqpppooonnnmmmmlllkkkkjjjjiiiihhhhggggfffffeeeeeddddddccccccbbbbbbbbaaaaaaaaaaaa----------------------------aaaaaaaaaaaabbbbbbbbccccccddddddeeeeefffffgggghhhhiiiijjjjkkkklllmmmmnnnooopppqqqqrrrssstttuuuvvvwwwxxxyyyzz+..+
(PID.TID 0000.0001) //    118 +..+zzyyyxxxwwwvvvuuutttsssrrrrqqqpppooonnnnmmmlllkkkkjjjjiiiihhhhggggfffffeeeeeddddddccccccbbbbbbbbaaaaaaaaaaaa----------------------------aaaaaaaaaaaabbbbbbbbccccccddddddeeeeefffffgggghhhhiiiijjjjkkkklllmmmnnnnooopppqqqrrrrssstttuuuvvvwwwxxxyyyzz+..+
(PID.TID 0000.0001) //    117 +..+zzyyyxxxwwwvvvuuutttsssrrrrqqqpppooonnnnmmmllllkkkjjjjiiiihhhhggggfffffeeeeeddddddcccccccbbbbbbbbaaaaaaaaaaaa--------------------------aaaaaaaaaaaabbbbbbbbcccccccddddddeeeeefffffgggghhhhiiiijjjjkkkllllmmmnnnnooopppqqqrrrrssstttuuuvvvwwwxxxyyyzz+..+
(PID.TID 0000.0001) //    116 +..+zzyyyxxxwwwvvvuuutttsssrrrrqqqpppooonnnnmmmllllkkkjjjjiiiihhhhgggggffffeeeeeddddddcccccccbbbbbbbbaaaaaaaaaaaa--------------------------aaaaaaaaaaaabbbbbbbbcccccccddddddeeeeeffffggggghhhhiiiijjjjkkkllllmmmnnnnooopppqqqrrrrssstttuuuvvvwwwxxxyyyzz+..+
(PID.TID 0000.0001) //    115 +..+zzyyyxxxwwwvvvuuutttssssrrrqqqpppooonnnnmmmllllkkkjjjjiiiihhhhgggggffffeeeeeedddddcccccccbbbbbbbbaaaaaaaaaaaaa------------------------aaaaaaaaaaaaabbbbbbbbcccccccdddddeeeeeeffffggggghhhhiiiijjjjkkkllllmmmnnnnooopppqqqrrrsssstttuuuvvvwwwxxxyyyzz+..+
(PID.TID 0000.0001) //    114 +..+zzyyyxxxwwwvvvuuutttssssrrrqqqpppooonnnnmmmllllkkkjjjjiiiihhhhgggggfffffeeeeeddddddccccccbbbbbbbbbaaaaaaaaaaaaa----------------------aaaaaaaaaaaaabbbbbbbbbccccccddddddeeeeefffffggggghhhhiiiijjjjkkkllllmmmnnnnooopppqqqrrrsssstttuuuvvvwwwxxxyyyzz+..+
(PID.TID 0000.0001) //    113 +..+zzyyyxxxwwwvvvuuutttssssrrrqqqpppooonnnnmmmllllkkkkjjjiiiihhhhhggggfffffeeeeeddddddcccccccbbbbbbbbaaaaaaaaaaaaaa--------------------aaaaaaaaaaaaaabbbbbbbbcccccccddddddeeeeefffffgggghhhhhiiiijjjkkkkllllmmmnnnnooopppqqqrrrsssstttuuuvvvwwwxxxyyyzz+..+
(PID.TID 0000.0001) //    112 +..+zzyyyxxxwwwvvvuuuttttsssrrrqqqpppoooonnnmmmllllkkkkjjjjiiiihhhhggggfffffeeeeeddddddcccccccbbbbbbbbbaaaaaaaaaaaaaa------------------aaaaaaaaaaaaaabbbbbbbbbcccccccddddddeeeeefffffgggghhhhiiiijjjjkkkkllllmmmnnnoooopppqqqrrrsssttttuuuvvvwwwxxxyyyzz+..+
(PID.TID 0000.0001) //    111 +..+zzyyyxxxwwwvvvuuuutttsssrrrqqqpppoooonnnmmmmlllkkkkjjjjiiiihhhhggggfffffeeeeeedddddcccccccbbbbbbbbbaaaaaaaaaaaaaaaa--------------aaaaaaaaaaaaaaaabbbbbbbbbcccccccdddddeeeeeefffffgggghhhhiiiijjjjkkkklllmmmmnnnoooopppqqqrrrssstttuuuuvvvwwwxxxyyyzz+..+
(PID.TID 0000.0001) //    110 +..+zzzyyxxxwwwvvvvuuutttsssrrrqqqpppoooonnnmmmmlllkkkkjjjjiiiihhhhgggggfffffeeeeeddddddcccccccbbbbbbbbbaaaaaaaaaaaaaaaaa----------aaaaaaaaaaaaaaaaabbbbbbbbbcccccccddddddeeeeefffffggggghhhhiiiijjjjkkkklllmmmmnnnoooopppqqqrrrssstttuuuvvvvwwwxxxyyzzz+..+
(PID.TID 0000.0001) //    109 +..+zzzyyyxxxwwwvvvuuutttsssrrrqqqpppoooonnnmmmmlllkkkkjjjjiiiihhhhgggggfffffeeeeeddddddcccccccbbbbbbbbbaaaaaaaaaaaaaaaaaaaaaaaaaaaaaaaaaaaaaaaaaaaabbbbbbbbbcccccccddddddeeeeefffffggggghhhhiiiijjjjkkkklllmmmmnnnoooopppqqqrrrssstttuuuvvvwwwxxxyyyzzz+..+
(PID.TID 0000.0001) //    108 +..+zzzyyyxxxwwwvvvuuutttsssrrrqqqppppooonnnmmmmllllkkkjjjjiiiihhhhhggggfffffeeeeedddddddcccccccbbbbbbbbbaaaaaaaaaaaaaaaaaaaaaaaaaaaaaaaaaaaaaaaaaabbbbbbbbbcccccccdddddddeeeeefffffgggghhhhhiiiijjjjkkkllllmmmmnnnoooppppqqqrrrssstttuuuvvvwwwxxxyyyzzz+..+
(PID.TID 0000.0001) //    107 +..+zzzyyyxxxwwwvvvuuutttsssrrrqqqppppooonnnnmmmllllkkkjjjjiiiihhhhhggggfffffeeeeeeddddddcccccccbbbbbbbbbbaaaaaaaaaaaaaaaaaaaaaaaaaaaaaaaaaaaaaaaabbbbbbbbbbcccccccddddddeeeeeefffffgggghhhhhiiiijjjjkkkllllmmmnnnnoooppppqqqrrrssstttuuuvvvwwwxxxyyyzzz+..+
(PID.TID 0000.0001) //    106 +..+zzzyyyxxxwwwvvvuuutttsssrrrqqqqpppooonnnnmmmllllkkkkjjjjiiiihhhhgggggfffffeeeeeddddddccccccccbbbbbbbbbbaaaaaaaaaaaaaaaaaaaaaaaaaaaaaaaaaaaaaabbbbbbbbbbccccccccddddddeeeeefffffggggghhhhiiiijjjjkkkkllllmmmnnnnooopppqqqqrrrssstttuuuvvvwwwxxxyyyzzz+..+
(PID.TID 0000.0001) //    105 +..+zzzyyyxxxwwwvvvuuutttsssrrrqqqqpppooonnnnmmmllllkkkkjjjjiiiihhhhgggggfffffeeeeeeddddddccccccccbbbbbbbbbbaaaaaaaaaaaaaaaaaaaaaaaaaaaaaaaaaaaabbbbbbbbbbccccccccddddddeeeeeefffffggggghhhhiiiijjjjkkkkllllmmmnnnnooopppqqqqrrrssstttuuuvvvwwwxxxyyyzzz+..+
(PID.TID 0000.0001) //    104 +..+zzzyyyxxxwwwvvvuuutttsssrrrqqqqpppooonnnnmmmmlllkkkkjjjjiiiihhhhhggggfffffeeeeeedddddddcccccccbbbbbbbbbbbaaaaaaaaaaaaaaaaaaaaaaaaaaaaaaaaaabbbbbbbbbbbcccccccdddddddeeeeeefffffgggghhhhhiiiijjjjkkkklllmmmmnnnnooopppqqqqrrrssstttuuuvvvwwwxxxyyyzzz+..+
(PID.TID 0000.0001) //    103 +..+zzzyyyxxxwwwvvvuuutttsssrrrrqqqpppoooonnnmmmmlllkkkkjjjjiiiiihhhhgggggfffffeeeeeeddddddccccccccbbbbbbbbbbbaaaaaaaaaaaaaaaaaaaaaaaaaaaaaaaabbbbbbbbbbbccccccccddddddeeeeeefffffggggghhhhiiiiijjjjkkkklllmmmmnnnoooopppqqqrrrrssstttuuuvvvwwwxxxyyyzzz+..+
(PID.TID 0000.0001) //    102 +..+zzzyyyxxxwwwvvvuuutttsssrrrrqqqpppoooonnnmmmmllllkkkkjjjjiiiihhhhgggggfffffeeeeeedddddddccccccccbbbbbbbbbbbbaaaaaaaaaaaaaaaaaaaaaaaaaaaabbbbbbbbbbbbccccccccdddddddeeeeeefffffggggghhhhiiiijjjjkkkkllllmmmmnnnoooopppqqqrrrrssstttuuuvvvwwwxxxyyyzzz+..+
(PID.TID 0000.0001) //    101 +..+zzzyyyxxxwwwvvvuuutttssssrrrqqqpppoooonnnmmmmllllkkkkjjjjiiiihhhhhggggffffffeeeeeeddddddcccccccccbbbbbbbbbbbbbaaaaaaaaaaaaaaaaaaaaaaaabbbbbbbbbbbbbcccccccccddddddeeeeeeffffffgggghhhhhiiiijjjjkkkkllllmmmmnnnoooopppqqqrrrsssstttuuuvvvwwwxxxyyyzzz+..+
(PID.TID 0000.0001) //    100 +..+zzzyyyxxxwwwvvvuuutttssssrrrqqqppppooonnnnmmmllllkkkkjjjjiiiihhhhhgggggfffffeeeeeedddddddcccccccccbbbbbbbbbbbbbbaaaaaaaaaaaaaaaaaaaabbbbbbbbbbbbbbcccccccccdddddddeeeeeefffffggggghhhhhiiiijjjjkkkkllllmmmnnnnoooppppqqqrrrsssstttuuuvvvwwwxxxyyyzzz+..+
(PID.TID 0000.0001) //     99 +..+zzzyyyxxxwwwvvvuuuttttsssrrrqqqppppooonnnnmmmmlllkkkkjjjjiiiiihhhhgggggffffffeeeeeedddddddcccccccccbbbbbbbbbbbbbbbbaaaaaaaaaaaaaabbbbbbbbbbbbbbbbcccccccccdddddddeeeeeeffffffggggghhhhiiiiijjjjkkkklllmmmmnnnnoooppppqqqrrrsssttttuuuvvvwwwxxxyyyzzz+..+
(PID.TID 0000.0001) //     98 +..+zzzyyyxxxwwwvvvuuuttttsssrrrqqqqpppooonnnnmmmmllllkkkkjjjjiiiihhhhhgggggfffffeeeeeeddddddddcccccccccbbbbbbbbbbbbbbbbbbbbbbbbbbbbbbbbbbbbbbbbbbbbcccccccccddddddddeeeeeefffffggggghhhhhiiiijjjjkkkkllllmmmmnnnnooopppqqqqrrrsssttttuuuvvvwwwxxxyyyzzz+..+
(PID.TID 0000.0001) //     97 +..+zzzyyyxxxwwwvvvuuuttttsssrrrqqqqpppoooonnnmmmmllllkkkkjjjjiiiiihhhhgggggffffffeeeeeedddddddccccccccccbbbbbbbbbbbbbbbbbbbbbbbbbbbbbbbbbbbbbbbbbbccccccccccdddddddeeeeeeffffffggggghhhhiiiiijjjjkkkkllllmmmmnnnoooopppqqqqrrrsssttttuuuvvvwwwxxxyyyzzz+..+
(PID.TID 0000.0001) //     96 +..+zzzyyyxxxwwwvvvuuuutttsssrrrqqqqpppoooonnnnmmmllllkkkkjjjjiiiiihhhhhgggggfffffeeeeeeedddddddcccccccccccbbbbbbbbbbbbbbbbbbbbbbbbbbbbbbbbbbbbbbcccccccccccdddddddeeeeeeefffffggggghhhhhiiiiijjjjkkkkllllmmmnnnnoooopppqqqqrrrssstttuuuuvvvwwwxxxyyyzzz+..+
(PID.TID 0000.0001) //     95 +..+zzzyyyxxxwwwvvvuuuutttsssrrrrqqqppppooonnnnmmmmlllkkkkkjjjjiiiihhhhhgggggffffffeeeeeeedddddddcccccccccccbbbbbbbbbbbbbbbbbbbbbbbbbbbbbbbbbbbbcccccccccccdddddddeeeeeeeffffffggggghhhhhiiiijjjjkkkkklllmmmmnnnnoooppppqqqrrrrssstttuuuuvvvwwwxxxyyyzzz+..+
(PID.TID 0000.0001) //     94 +..+zzzyyyxxxwwwvvvvuuutttsssrrrrqqqppppooonnnnmmmmllllkkkkjjjjiiiiihhhhhgggggffffffeeeeeeddddddddccccccccccccbbbbbbbbbbbbbbbbbbbbbbbbbbbbbbbbccccccccccccddddddddeeeeeeffffffggggghhhhhiiiiijjjjkkkkllllmmmmnnnnoooppppqqqrrrrssstttuuuvvvvwwwxxxyyyzzz+..+
(PID.TID 0000.0001) //     93 +..+zzzyyyxxxwwwvvvvuuutttssssrrrqqqppppoooonnnmmmmllllkkkkjjjjjiiiihhhhhgggggffffffeeeeeeedddddddddccccccccccccbbbbbbbbbbbbbbbbbbbbbbbbbbbbccccccccccccdddddddddeeeeeeeffffffggggghhhhhiiiijjjjjkkkkllllmmmmnnnooooppppqqqrrrsssstttuuuvvvvwwwxxxyyyzzz+..+
(PID.TID 0000.0001) //     92 +..+zzzyyyxxxwwwvvvvuuutttssssrrrqqqqpppoooonnnnmmmllllkkkkkjjjjiiiiihhhhhgggggffffffeeeeeeedddddddddccccccccccccccbbbbbbbbbbbbbbbbbbbbbbccccccccccccccdddddddddeeeeeeeffffffggggghhhhhiiiiijjjjkkkkkllllmmmnnnnoooopppqqqqrrrsssstttuuuvvvvwwwxxxyyyzzz+..+
(PID.TID 0000.0001) //     91 +..+zzzyyyxxxwwwwvvvuuutttssssrrrqqqqpppoooonnnnmmmmllllkkkkjjjjiiiiihhhhhggggggffffffeeeeeeedddddddddcccccccccccccccccbbbbbbbbbbbbbbcccccccccccccccccdddddddddeeeeeeeffffffgggggghhhhhiiiiijjjjkkkkllllmmmmnnnnoooopppqqqqrrrsssstttuuuvvvwwwwxxxyyyzzz+..+
(PID.TID 0000.0001) //     90 +..+zzzyyyxxxwwwwvvvuuuttttsssrrrrqqqppppooonnnnmmmmllllkkkkjjjjjiiiiihhhhhgggggfffffffeeeeeeeddddddddddccccccccccccccccccccccccccccccccccccccccccccddddddddddeeeeeeefffffffggggghhhhhiiiiijjjjjkkkkllllmmmmnnnnoooppppqqqrrrrsssttttuuuvvvwwwwxxxyyyzzz+..+
(PID.TID 0000.0001) //     89 +..+zzzyyyxxxwwwwvvvuuuttttsssrrrrqqqppppoooonnnmmmmlllllkkkkjjjjiiiiihhhhhggggggfffffffeeeeeeedddddddddddccccccccccccccccccccccccccccccccccccccccdddddddddddeeeeeeefffffffgggggghhhhhiiiiijjjjkkkklllllmmmmnnnooooppppqqqrrrrsssttttuuuvvvwwwwxxxyyyzzz+..+
(PID.TID 0000.0001) //     88 +..+zzzyyyxxxxwwwvvvuuuutttsssrrrrqqqqpppoooonnnnmmmmllllkkkkjjjjjiiiiihhhhhggggggfffffffeeeeeeeeddddddddddccccccccccccccccccccccccccccccccccccccddddddddddeeeeeeeefffffffgggggghhhhhiiiiijjjjjkkkkllllmmmmnnnnoooopppqqqqrrrrssstttuuuuvvvwwwxxxxyyyzzz+..+
(PID.TID 0000.0001) //     87 +..+zzzyyyxxxxwwwvvvuuuutttssssrrrqqqqpppoooonnnnmmmmllllkkkkkjjjjiiiiihhhhhhggggggfffffffeeeeeeeeddddddddddddccccccccccccccccccccccccccccccccddddddddddddeeeeeeeefffffffgggggghhhhhhiiiiijjjjkkkkkllllmmmmnnnnoooopppqqqqrrrsssstttuuuuvvvwwwxxxxyyyzzz+..+
(PID.TID 0000.0001) //     86 +..+zzzyyyxxxxwwwvvvuuuutttssssrrrqqqqppppoooonnnnmmmmllllkkkkjjjjjiiiiihhhhhhggggggfffffffeeeeeeeedddddddddddddccccccccccccccccccccccccccccdddddddddddddeeeeeeeefffffffgggggghhhhhhiiiiijjjjjkkkkllllmmmmnnnnooooppppqqqqrrrsssstttuuuuvvvwwwxxxxyyyzzz+..+
(PID.TID 0000.0001) //     85 +..+zzzyyyxxxxwwwvvvvuuutttssssrrrrqqqppppoooonnnnmmmmllllkkkkkjjjjjiiiiihhhhhgggggggfffffffeeeeeeeeedddddddddddddddccccccccccccccccccccdddddddddddddddeeeeeeeeefffffffggggggghhhhhiiiiijjjjjkkkkkllllmmmmnnnnooooppppqqqrrrrsssstttuuuvvvvwwwxxxxyyyzzz+..+
(PID.TID 0000.0001) //     84 +..+zzzyyyxxxxwwwvvvvuuuttttsssrrrrqqqqpppoooonnnnmmmmlllllkkkkjjjjjiiiiihhhhhhgggggggfffffffeeeeeeeeeeddddddddddddddddddddccccccddddddddddddddddddddeeeeeeeeeefffffffggggggghhhhhhiiiiijjjjjkkkklllllmmmmnnnnoooopppqqqqrrrrsssttttuuuvvvvwwwxxxxyyyzzz+..+
(PID.TID 0000.0001) //     83 +..+zzzyyyyxxxwwwvvvvuuuttttsssrrrrqqqqppppoooonnnnmmmmllllkkkkkjjjjjiiiiihhhhhhgggggggfffffffeeeeeeeeeeeddddddddddddddddddddddddddddddddddddddddddeeeeeeeeeeefffffffggggggghhhhhhiiiiijjjjjkkkkkllllmmmmnnnnooooppppqqqqrrrrsssttttuuuvvvvwwwxxxyyyyzzz+..+
(PID.TID 0000.0001) //     82 +..+zzzyyyyxxxwwwvvvvuuuttttssssrrrqqqqppppoooonnnnmmmmlllllkkkkkjjjjjiiiiihhhhhhgggggggffffffffeeeeeeeeeeeddddddddddddddddddddddddddddddddddddddeeeeeeeeeeeffffffffggggggghhhhhhiiiiijjjjjkkkkklllllmmmmnnnnooooppppqqqqrrrssssttttuuuvvvvwwwxxxyyyyzzz+..+
(PID.TID 0000.0001) //     81 +..+zzzyyyyxxxwwwwvvvuuuutttssssrrrrqqqppppoooonnnnnmmmmllllkkkkkjjjjjiiiiiihhhhhhgggggggffffffffeeeeeeeeeeeeddddddddddddddddddddddddddddddddddeeeeeeeeeeeeffffffffggggggghhhhhhiiiiiijjjjjkkkkkllllmmmmnnnnnooooppppqqqrrrrsssstttuuuuvvvwwwwxxxyyyyzzz+..+
(PID.TID 0000.0001) //     80 +..+zzzyyyyxxxwwwwvvvuuuutttssssrrrrqqqqppppoooonnnnmmmmlllllkkkkkjjjjjiiiiiihhhhhhgggggggfffffffffeeeeeeeeeeeeeeddddddddddddddddddddddddddeeeeeeeeeeeeeefffffffffggggggghhhhhhiiiiiijjjjjkkkkklllllmmmmnnnnooooppppqqqqrrrrsssstttuuuuvvvwwwwxxxyyyyzzz+..+
(PID.TID 0000.0001) //     79 +..+zzzyyyyxxxwwwwvvvuuuuttttsssrrrrqqqqppppoooonnnnmmmmmlllllkkkkjjjjjjiiiiiihhhhhhgggggggffffffffffeeeeeeeeeeeeeeeeddddddddddddddddddeeeeeeeeeeeeeeeeffffffffffggggggghhhhhhiiiiiijjjjjjkkkklllllmmmmmnnnnooooppppqqqqrrrrsssttttuuuuvvvwwwwxxxyyyyzzz+..+
(PID.TID 0000.0001) //     78 +..+zzzyyyyxxxwwwwvvvvuuuttttssssrrrrqqqppppooooonnnnmmmmlllllkkkkkjjjjjjiiiiihhhhhhhggggggggffffffffffeeeeeeeeeeeeeeeeeeeeeeeeeeeeeeeeeeeeeeeeeeeeeeffffffffffgggggggghhhhhhhiiiiijjjjjjkkkkklllllmmmmnnnnoooooppppqqqrrrrssssttttuuuvvvvwwwwxxxyyyyzzz+..+
(PID.TID 0000.0001) //     77 +..+zzzyyyyxxxxwwwvvvvuuuttttssssrrrrqqqqppppoooonnnnmmmmmlllllkkkkkjjjjjiiiiiihhhhhhhggggggggfffffffffffeeeeeeeeeeeeeeeeeeeeeeeeeeeeeeeeeeeeeeeeeefffffffffffgggggggghhhhhhhiiiiiijjjjjkkkkklllllmmmmmnnnnooooppppqqqqrrrrssssttttuuuvvvvwwwxxxxyyyyzzz+..+
(PID.TID 0000.0001) //     76 +..+zzzyyyyxxxxwwwvvvvuuuutttssssrrrrqqqqppppooooonnnnmmmmmlllllkkkkkjjjjjiiiiiiihhhhhhhggggggggffffffffffffeeeeeeeeeeeeeeeeeeeeeeeeeeeeeeeeeeeeffffffffffffgggggggghhhhhhhiiiiiiijjjjjkkkkklllllmmmmmnnnnoooooppppqqqqrrrrsssstttuuuuvvvvwwwxxxxyyyyzzz+..+
(PID.TID 0000.0001) //     75 +..+zzzyyyyxxxxwwwvvvvuuuuttttssssrrrrqqqqppppoooonnnnnmmmmlllllkkkkkkjjjjjiiiiiiihhhhhhhgggggggggffffffffffffffeeeeeeeeeeeeeeeeeeeeeeeeeeeeffffffffffffffggggggggghhhhhhhiiiiiiijjjjjkkkkkklllllmmmmnnnnnooooppppqqqqrrrrssssttttuuuuvvvvwwwxxxxyyyyzzz+..+
(PID.TID 0000.0001) //     74 +..+zzzzyyyxxxxwwwwvvvuuuuttttssssrrrrqqqqppppooooonnnnmmmmmlllllkkkkkjjjjjjiiiiiiihhhhhhhggggggggggffffffffffffffffeeeeeeeeeeeeeeeeeeeeffffffffffffffffgggggggggghhhhhhhiiiiiiijjjjjjkkkkklllllmmmmmnnnnoooooppppqqqqrrrrssssttttuuuuvvvwwwwxxxxyyyzzzz+..+
(PID.TID 0000.0001) //     73 +..+zzzzyyyxxxxwwwwvvvvuuuttttssssrrrrqqqqpppppoooonnnnnmmmmmlllllkkkkkjjjjjjiiiiiiihhhhhhhhggggggggggffffffffffffffffffffffffffffffffffffffffffffffffgggggggggghhhhhhhhiiiiiiijjjjjjkkkkklllllmmmmmnnnnnoooopppppqqqqrrrrssssttttuuuvvvvwwwwxxxxyyyzzzz+..+
(PID.TID 0000.0001) //     72 +..+zzzzyyyxxxxwwwwvvvvuuuuttttssssrrrrqqqqppppooooonnnnmmmmmllllllkkkkkjjjjjjiiiiiiihhhhhhhhhgggggggggggffffffffffffffffffffffffffffffffffffffffffggggggggggghhhhhhhhhiiiiiiijjjjjjkkkkkllllllmmmmmnnnnoooooppppqqqqrrrrssssttttuuuuvvvvwwwwxxxxyyyzzzz+..+
(PID.TID 0000.0001) //     71 +..+zzzzyyyxxxxwwwwvvvvuuuuttttssssrrrrqqqqpppppoooonnnnnmmmmmlllllkkkkkkjjjjjjjiiiiiiihhhhhhhhhggggggggggggffffffffffffffffffffffffffffffffffffgggggggggggghhhhhhhhhiiiiiiijjjjjjjkkkkkklllllmmmmmnnnnnoooopppppqqqqrrrrssssttttuuuuvvvvwwwwxxxxyyyzzzz+..+
(PID.TID 0000.0001) //     70 +..+zzzzyyyyxxxwwwwvvvvuuuuttttssssrrrrqqqqqppppooooonnnnnmmmmmlllllkkkkkkjjjjjjjiiiiiiihhhhhhhhhhggggggggggggggffffffffffffffffffffffffffffgggggggggggggghhhhhhhhhhiiiiiiijjjjjjjkkkkkklllllmmmmmnnnnnoooooppppqqqqqrrrrssssttttuuuuvvvvwwwwxxxyyyyzzzz+..+
(PID.TID 0000.0001) //     69 +..+zzzzyyyyxxxxwwwvvvvuuuuttttsssssrrrrqqqqpppppooooonnnnmmmmmmlllllkkkkkkjjjjjjjiiiiiiiihhhhhhhhhhggggggggggggggggggffffffffffffffffgggggggggggggggggghhhhhhhhhhiiiiiiiijjjjjjjkkkkkklllllmmmmmmnnnnooooopppppqqqqrrrrsssssttttuuuuvvvvwwwxxxxyyyyzzzz+..+
(PID.TID 0000.0001) //     68 +..+zzzzyyyyxxxxwwwwvvvvuuuuttttssssrrrrqqqqqppppooooonnnnnmmmmmmlllllkkkkkkkjjjjjjjiiiiiiiihhhhhhhhhhhgggggggggggggggggggggggggggggggggggggggggggggghhhhhhhhhhhiiiiiiiijjjjjjjkkkkkkklllllmmmmmmnnnnnoooooppppqqqqqrrrrssssttttuuuuvvvvwwwwxxxxyyyyzzzz+..+
(PID.TID 0000.0001) //     67 +..+zzzzyyyyxxxxwwwwvvvvuuuuttttssssrrrrrqqqqpppppooooonnnnnmmmmmllllllkkkkkkkjjjjjjjiiiiiiiiihhhhhhhhhhhhgggggggggggggggggggggggggggggggggggggggghhhhhhhhhhhhiiiiiiiiijjjjjjjkkkkkkkllllllmmmmmnnnnnooooopppppqqqqrrrrrssssttttuuuuvvvvwwwwxxxxyyyyzzzz+..+
(PID.TID 0000.0001) //     66 +..+zzzzyyyyxxxxwwwwvvvvuuuutttttssssrrrrqqqqqpppppooooonnnnnmmmmmllllllkkkkkkkjjjjjjjjiiiiiiiiihhhhhhhhhhhhhhgggggggggggggggggggggggggggggggghhhhhhhhhhhhhhiiiiiiiiijjjjjjjjkkkkkkkllllllmmmmmnnnnnooooopppppqqqqqrrrrsssstttttuuuuvvvvwwwwxxxxyyyyzzzz+..+
(PID.TID 0000.0001) //     65 +..+zzzzyyyyxxxxwwwwvvvvuuuuuttttssssrrrrrqqqqpppppooooonnnnnnmmmmmlllllllkkkkkkjjjjjjjjiiiiiiiiiiihhhhhhhhhhhhhhhhgggggggggggggggggggggghhhhhhhhhhhhhhhhiiiiiiiiiiijjjjjjjjkkkkkklllllllmmmmmnnnnnnooooopppppqqqqrrrrrssssttttuuuuuvvvvwwwwxxxxyyyyzzzz+..+
(PID.TID 0000.0001) //     64 +..+zzzzyyyyxxxxwwwwvvvvvuuuuttttsssssrrrrqqqqqpppppooooonnnnnnmmmmmlllllllkkkkkkkjjjjjjjjiiiiiiiiiiihhhhhhhhhhhhhhhhhhhhhhhhhhhhhhhhhhhhhhhhhhhhhhhhhhiiiiiiiiiiijjjjjjjjkkkkkkklllllllmmmmmnnnnnnooooopppppqqqqqrrrrsssssttttuuuuvvvvvwwwwxxxxyyyyzzzz+..+
(PID.TID 0000.0001) //     63 +..+zzzzyyyyxxxxxwwwwvvvvuuuutttttssssrrrrrqqqqqpppppooooonnnnnnmmmmmmllllllkkkkkkkkjjjjjjjjiiiiiiiiiiiiihhhhhhhhhhhhhhhhhhhhhhhhhhhhhhhhhhhhhhhhhhiiiiiiiiiiiiijjjjjjjjkkkkkkkkllllllmmmmmmnnnnnnooooopppppqqqqqrrrrrsssstttttuuuuvvvvwwwwxxxxxyyyyzzzz+..+
(PID.TID 0000.0001) //     62 +..+zzzzyyyyxxxxxwwwwvvvvuuuuuttttsssssrrrrqqqqqpppppoooooonnnnnnmmmmmmlllllllkkkkkkkjjjjjjjjjjiiiiiiiiiiiiihhhhhhhhhhhhhhhhhhhhhhhhhhhhhhhhhhhhiiiiiiiiiiiiijjjjjjjjjjkkkkkkklllllllmmmmmmnnnnnnoooooopppppqqqqqrrrrsssssttttuuuuuvvvvwwwwxxxxxyyyyzzzz+..+
(PID.TID 0000.0001) //     61 +..+zzzzyyyyyxxxxwwwwvvvvvuuuutttttssssrrrrrqqqqqpppppoooooonnnnnnmmmmmmlllllllkkkkkkkkjjjjjjjjjjiiiiiiiiiiiiiiiiihhhhhhhhhhhhhhhhhhhhhhhhiiiiiiiiiiiiiiiiijjjjjjjjjjkkkkkkkklllllllmmmmmmnnnnnnoooooopppppqqqqqrrrrrsssstttttuuuuvvvvvwwwwxxxxyyyyyzzzz+..+
(PID.TID 0000.0001) //     60 +..+zzzzyyyyyxxxxwwwwvvvvvuuuutttttsssssrrrrrqqqqqpppppoooooonnnnnnmmmmmmllllllllkkkkkkkkjjjjjjjjjjjiiiiiiiiiiiiiiiiiiiiiiiiiiiiiiiiiiiiiiiiiiiiiiiiiiiijjjjjjjjjjjkkkkkkkkllllllllmmmmmmnnnnnnoooooopppppqqqqqrrrrrssssstttttuuuuvvvvvwwwwxxxxyyyyyzzzz+..+
(PID.TID 0000.0001) //     59 +..+zzzzzyyyyxxxxwwwwwvvvvuuuuutttttssssrrrrrqqqqqqpppppoooooonnnnnnmmmmmmmlllllllkkkkkkkkkjjjjjjjjjjjjjiiiiiiiiiiiiiiiiiiiiiiiiiiiiiiiiiiiiiiiiiiiijjjjjjjjjjjjjkkkkkkkkklllllllmmmmmmmnnnnnnoooooopppppqqqqqqrrrrrsssstttttuuuuuvvvvwwwwwxxxxyyyyzzzzz+..+
(PID.TID 0000.0001) //     58 +..+zzzzzyyyyxxxxxwwwwvvvvvuuuutttttsssssrrrrrqqqqqppppppoooooonnnnnnmmmmmmmllllllllkkkkkkkkkkjjjjjjjjjjjjjjiiiiiiiiiiiiiiiiiiiiiiiiiiiiiiiiiiiijjjjjjjjjjjjjjkkkkkkkkkkllllllllmmmmmmmnnnnnnooooooppppppqqqqqrrrrrssssstttttuuuuvvvvvwwwwxxxxxyyyyzzzzz+..+
(PID.TID 0000.0001) //     57 +..+zzzzzyyyyxxxxxwwwwvvvvvuuuuutttttsssssrrrrrqqqqqppppppoooooonnnnnnmmmmmmmmllllllllkkkkkkkkkkkjjjjjjjjjjjjjjjjjiiiiiiiiiiiiiiiiiiiiiiiijjjjjjjjjjjjjjjjjkkkkkkkkkkkllllllllmmmmmmmmnnnnnnooooooppppppqqqqqrrrrrssssstttttuuuuuvvvvvwwwwxxxxxyyyyzzzzz+..+
(PID.TID 0000.0001) //     56 +..+zzzzzyyyyxxxxxwwwwwvvvvuuuuutttttsssssrrrrrqqqqqqppppppoooooonnnnnnnmmmmmmmlllllllllkkkkkkkkkkkkjjjjjjjjjjjjjjjjjjjjjjjjjjjjjjjjjjjjjjjjjjjjjjjjjjjjkkkkkkkkkkkklllllllllmmmmmmmnnnnnnnooooooppppppqqqqqqrrrrrssssstttttuuuuuvvvvwwwwwxxxxxyyyyzzzzz+..+
(PID.TID 0000.0001) //     55 +..+zzzzzyyyyyxxxxwwwwwvvvvvuuuuutttttsssssrrrrrqqqqqqppppppoooooonnnnnnnmmmmmmmmllllllllllkkkkkkkkkkkkkjjjjjjjjjjjjjjjjjjjjjjjjjjjjjjjjjjjjjjjjjjjjkkkkkkkkkkkkkllllllllllmmmmmmmmnnnnnnnooooooppppppqqqqqqrrrrrssssstttttuuuuuvvvvvwwwwwxxxxyyyyyzzzzz+..+
(PID.TID 0000.0001) //     54 +..+zzzzzyyyyyxxxxxwwwwvvvvvuuuuutttttssssssrrrrrqqqqqqppppppooooooonnnnnnnmmmmmmmmllllllllllkkkkkkkkkkkkkkkjjjjjjjjjjjjjjjjjjjjjjjjjjjjjjjjjjjjkkkkkkkkkkkkkkkllllllllllmmmmmmmmnnnnnnnoooooooppppppqqqqqqrrrrrsssssstttttuuuuuvvvvvwwwwxxxxxyyyyyzzzzz+..+
(PID.TID 0000.0001) //     53 +..+zzzzzyyyyyxxxxxwwwwwvvvvvuuuuutttttsssssrrrrrrqqqqqqppppppooooooonnnnnnnnmmmmmmmmlllllllllllkkkkkkkkkkkkkkkkkkkjjjjjjjjjjjjjjjjjjjjjjkkkkkkkkkkkkkkkkkkklllllllllllmmmmmmmmnnnnnnnnoooooooppppppqqqqqqrrrrrrssssstttttuuuuuvvvvvwwwwwxxxxxyyyyyzzzzz+..+
(PID.TID 0000.0001) //     52 +..+zzzzzyyyyyxxxxxwwwwwvvvvvuuuuuttttttsssssrrrrrrqqqqqqppppppoooooooonnnnnnnmmmmmmmmmmllllllllllllkkkkkkkkkkkkkkkkkkkkkkkkkkkkkkkkkkkkkkkkkkkkkkkkkkkkllllllllllllmmmmmmmmmmnnnnnnnooooooooppppppqqqqqqrrrrrrsssssttttttuuuuuvvvvvwwwwwxxxxxyyyyyzzzzz+..+
(PID.TID 0000.0001) //     51 +..++zzzzyyyyyxxxxxwwwwwvvvvvvuuuuutttttssssssrrrrrrqqqqqqpppppppooooooonnnnnnnnmmmmmmmmmmllllllllllllllkkkkkkkkkkkkkkkkkkkkkkkkkkkkkkkkkkkkkkkkkkkkllllllllllllllmmmmmmmmmmnnnnnnnnooooooopppppppqqqqqqrrrrrrsssssstttttuuuuuvvvvvvwwwwwxxxxxyyyyyzzzz++..+
(PID.TID 0000.0001) //     50 +..++zzzzzyyyyyxxxxxwwwwwvvvvvuuuuuttttttssssssrrrrrrqqqqqqpppppppoooooooonnnnnnnnnmmmmmmmmmmlllllllllllllllllkkkkkkkkkkkkkkkkkkkkkkkkkkkkkkkklllllllllllllllllmmmmmmmmmmnnnnnnnnnoooooooopppppppqqqqqqrrrrrrssssssttttttuuuuuvvvvvwwwwwxxxxxyyyyyzzzzz++..+
(PID.TID 0000.0001) //     49 +..++zzzzzyyyyyxxxxxwwwwwvvvvvvuuuuuttttttssssssrrrrrrqqqqqqqpppppppoooooooonnnnnnnnnmmmmmmmmmmmmllllllllllllllllllllllkkkkkkkkkkkkkkllllllllllllllllllllllmmmmmmmmmmmmnnnnnnnnnoooooooopppppppqqqqqqqrrrrrrssssssttttttuuuuuvvvvvvwwwwwxxxxxyyyyyzzzzz++..+
(PID.TID 0000.0001) //     48 +..++zzzzzyyyyyxxxxxwwwwwwvvvvvuuuuuuttttttssssssrrrrrrqqqqqqqpppppppooooooooonnnnnnnnnnmmmmmmmmmmmmmllllllllllllllllllllllllllllllllllllllllllllllllllmmmmmmmmmmmmmnnnnnnnnnnooooooooopppppppqqqqqqqrrrrrrssssssttttttuuuuuuvvvvvwwwwwwxxxxxyyyyyzzzzz++..+
(PID.TID 0000.0001) //     47 +..++zzzzzyyyyyxxxxxxwwwwwvvvvvvuuuuuttttttsssssssrrrrrrqqqqqqqppppppppooooooooonnnnnnnnnnmmmmmmmmmmmmmmmmllllllllllllllllllllllllllllllllllllllllmmmmmmmmmmmmmmmmnnnnnnnnnnoooooooooppppppppqqqqqqqrrrrrrsssssssttttttuuuuuvvvvvvwwwwwxxxxxxyyyyyzzzzz++..+
(PID.TID 0000.0001) //     46 +..++zzzzzyyyyyyxxxxxwwwwwwvvvvvuuuuuuttttttsssssssrrrrrrqqqqqqqqppppppppooooooooonnnnnnnnnnnnmmmmmmmmmmmmmmmmmmmllllllllllllllllllllllllllmmmmmmmmmmmmmmmmmmmnnnnnnnnnnnnoooooooooppppppppqqqqqqqqrrrrrrsssssssttttttuuuuuuvvvvvwwwwwwxxxxxyyyyyyzzzzz++..+
(PID.TID 0000.0001) //     45 +..++zzzzzyyyyyyxxxxxwwwwwwvvvvvvuuuuuuttttttsssssssrrrrrrrqqqqqqqpppppppppoooooooooonnnnnnnnnnnnnmmmmmmmmmmmmmmmmmmmmmmmmmmmmmmmmmmmmmmmmmmmmmmmmmmmmmmmmnnnnnnnnnnnnnoooooooooopppppppppqqqqqqqrrrrrrrsssssssttttttuuuuuuvvvvvvwwwwwwxxxxxyyyyyyzzzzz++..+
(PID.TID 0000.0001) //     44 +..++zzzzzyyyyyyxxxxxxwwwwwwvvvvvvuuuuuuttttttsssssssrrrrrrrqqqqqqqqpppppppppooooooooooonnnnnnnnnnnnnnmmmmmmmmmmmmmmmmmmmmmmmmmmmmmmmmmmmmmmmmmmmmmmmmnnnnnnnnnnnnnnooooooooooopppppppppqqqqqqqqrrrrrrrsssssssttttttuuuuuuvvvvvvwwwwwwxxxxxxyyyyyyzzzzz++..+
(PID.TID 0000.0001) //     43 +..++zzzzzzyyyyyxxxxxxwwwwwwvvvvvvuuuuuuuttttttsssssssrrrrrrrrqqqqqqqqpppppppppoooooooooooonnnnnnnnnnnnnnnnnnmmmmmmmmmmmmmmmmmmmmmmmmmmmmmmmmmmnnnnnnnnnnnnnnnnnnoooooooooooopppppppppqqqqqqqqrrrrrrrrsssssssttttttuuuuuuuvvvvvvwwwwwwxxxxxxyyyyyzzzzzz++..+
(PID.TID 0000.0001) //     42 +..++zzzzzzyyyyyyxxxxxxwwwwwwvvvvvvuuuuuuuttttttssssssssrrrrrrrqqqqqqqqqppppppppppooooooooooooonnnnnnnnnnnnnnnnnnnnnnnnnmmmmmmmmmmmmnnnnnnnnnnnnnnnnnnnnnnnnnoooooooooooooppppppppppqqqqqqqqqrrrrrrrssssssssttttttuuuuuuuvvvvvvwwwwwwxxxxxxyyyyyyzzzzzz++..+
(PID.TID 0000.0001) //     41 +..++zzzzzzyyyyyyxxxxxxwwwwwwvvvvvvvuuuuuuutttttttsssssssrrrrrrrrqqqqqqqqqpppppppppppoooooooooooooonnnnnnnnnnnnnnnnnnnnnnnnnnnnnnnnnnnnnnnnnnnnnnnnnnnnnnoooooooooooooopppppppppppqqqqqqqqqrrrrrrrrssssssstttttttuuuuuuuvvvvvvvwwwwwwxxxxxxyyyyyyzzzzzz++..+
(PID.TID 0000.0001) //     40 +..++zzzzzzyyyyyyxxxxxxxwwwwwwvvvvvvvuuuuuuutttttttssssssssrrrrrrrrqqqqqqqqqqpppppppppppooooooooooooooooonnnnnnnnnnnnnnnnnnnnnnnnnnnnnnnnnnnnnnnnnnooooooooooooooooopppppppppppqqqqqqqqqqrrrrrrrrsssssssstttttttuuuuuuuvvvvvvvwwwwwwxxxxxxxyyyyyyzzzzzz++..+
(PID.TID 0000.0001) //     39 +..++zzzzzzyyyyyyyxxxxxxwwwwwwwvvvvvvvuuuuuuutttttttssssssssrrrrrrrrrqqqqqqqqqqpppppppppppppoooooooooooooooooooooonnnnnnnnnnnnnnnnnnnnnnnnoooooooooooooooooooooopppppppppppppqqqqqqqqqqrrrrrrrrrsssssssstttttttuuuuuuuvvvvvvvwwwwwwwxxxxxxyyyyyyyzzzzzz++..+
(PID.TID 0000.0001) //     38 +..++zzzzzzzyyyyyyxxxxxxxwwwwwwwvvvvvvvuuuuuuuttttttttssssssssrrrrrrrrrqqqqqqqqqqqpppppppppppppppoooooooooooooooooooooooooooooooooooooooooooooooooooooooooopppppppppppppppqqqqqqqqqqqrrrrrrrrrssssssssttttttttuuuuuuuvvvvvvvwwwwwwwxxxxxxxyyyyyyzzzzzzz++..+
(PID.TID 0000.0001) //     37 +..++zzzzzzzyyyyyyyxxxxxxwwwwwwwvvvvvvvvuuuuuuuttttttttsssssssssrrrrrrrrrrqqqqqqqqqqqqppppppppppppppppooooooooooooooooooooooooooooooooooooooooooooooooppppppppppppppppqqqqqqqqqqqqrrrrrrrrrrsssssssssttttttttuuuuuuuvvvvvvvvwwwwwwwxxxxxxyyyyyyyzzzzzzz++..+
(PID.TID 0000.0001) //     36 +..++zzzzzzzyyyyyyyxxxxxxxwwwwwwwvvvvvvvvuuuuuuutttttttttsssssssssrrrrrrrrrrrqqqqqqqqqqqqqppppppppppppppppppppooooooooooooooooooooooooooooooooppppppppppppppppppppqqqqqqqqqqqqqrrrrrrrrrrrssssssssstttttttttuuuuuuuvvvvvvvvwwwwwwwxxxxxxxyyyyyyyzzzzzzz++..+
(PID.TID 0000.0001) //     35 +..+++zzzzzzyyyyyyyyxxxxxxxwwwwwwwvvvvvvvvuuuuuuuutttttttttsssssssssrrrrrrrrrrrrqqqqqqqqqqqqqqppppppppppppppppppppppppppppppppppppppppppppppppppppppppppppppppqqqqqqqqqqqqqqrrrrrrrrrrrrssssssssstttttttttuuuuuuuuvvvvvvvvwwwwwwwxxxxxxxyyyyyyyyzzzzzz+++..+
(PID.TID 0000.0001) //     34 +..+++zzzzzzzyyyyyyyxxxxxxxwwwwwwwwvvvvvvvvuuuuuuuuttttttttttssssssssssrrrrrrrrrrrrqqqqqqqqqqqqqqqqqppppppppppppppppppppppppppppppppppppppppppppppppppppqqqqqqqqqqqqqqqqqrrrrrrrrrrrrssssssssssttttttttttuuuuuuuuvvvvvvvvwwwwwwwwxxxxxxxyyyyyyyzzzzzzz+++..+
(PID.TID 0000.0001) //     33 +..+++zzzzzzzyyyyyyyyxxxxxxxwwwwwwwwvvvvvvvvuuuuuuuuuttttttttttsssssssssssrrrrrrrrrrrrrqqqqqqqqqqqqqqqqqqqqqppppppppppppppppppppppppppppppppppppqqqqqqqqqqqqqqqqqqqqqrrrrrrrrrrrrrsssssssssssttttttttttuuuuuuuuuvvvvvvvvwwwwwwwwxxxxxxxyyyyyyyyzzzzzzz+++..+
(PID.TID 0000.0001) //     32 +..+++zzzzzzzyyyyyyyyxxxxxxxxwwwwwwwwvvvvvvvvvuuuuuuuuuttttttttttssssssssssssrrrrrrrrrrrrrrrqqqqqqqqqqqqqqqqqqqqqqqqqqqqqqqqqqqqqqqqqqqqqqqqqqqqqqqqqqqqqqqqqqqqrrrrrrrrrrrrrrrssssssssssssttttttttttuuuuuuuuuvvvvvvvvvwwwwwwwwxxxxxxxxyyyyyyyyzzzzzzz+++..+
(PID.TID 0000.0001) //     31 +..+++zzzzzzzzyyyyyyyyxxxxxxxxwwwwwwwwvvvvvvvvvuuuuuuuuuutttttttttttssssssssssssrrrrrrrrrrrrrrrrrqqqqqqqqqqqqqqqqqqqqqqqqqqqqqqqqqqqqqqqqqqqqqqqqqqqqqqqqqqrrrrrrrrrrrrrrrrrsssssssssssstttttttttttuuuuuuuuuuvvvvvvvvvwwwwwwwwxxxxxxxxyyyyyyyyzzzzzzzz+++..+
(PID.TID 0000.0001) //     30 +..+++zzzzzzzzyyyyyyyyxxxxxxxxxwwwwwwwwwvvvvvvvvvuuuuuuuuuutttttttttttssssssssssssssrrrrrrrrrrrrrrrrrrrrrqqqqqqqqqqqqqqqqqqqqqqqqqqqqqqqqqqqqqqqqqqrrrrrrrrrrrrrrrrrrrrrsssssssssssssstttttttttttuuuuuuuuuuvvvvvvvvvwwwwwwwwwxxxxxxxxxyyyyyyyyzzzzzzzz+++..+
(PID.TID 0000.0001) //     29 +..+++zzzzzzzzzyyyyyyyyxxxxxxxxxwwwwwwwwwvvvvvvvvvvuuuuuuuuuutttttttttttttsssssssssssssssrrrrrrrrrrrrrrrrrrrrrrrrrrrrrrrqqqqqqqqqqqqrrrrrrrrrrrrrrrrrrrrrrrrrrrrrrrssssssssssssssstttttttttttttuuuuuuuuuuvvvvvvvvvvwwwwwwwwwxxxxxxxxxyyyyyyyyzzzzzzzzz+++..+
(PID.TID 0000.0001) //     28 +..+++zzzzzzzzzyyyyyyyyyxxxxxxxxxwwwwwwwwwvvvvvvvvvvvuuuuuuuuuuutttttttttttttssssssssssssssssssrrrrrrrrrrrrrrrrrrrrrrrrrrrrrrrrrrrrrrrrrrrrrrrrrrrrrrrrrrrrrrsssssssssssssssssstttttttttttttuuuuuuuuuuuvvvvvvvvvvvwwwwwwwwwxxxxxxxxxyyyyyyyyyzzzzzzzzz+++..+
(PID.TID 0000.0001) //     27 +..++++zzzzzzzzzyyyyyyyyyxxxxxxxxxwwwwwwwwwwvvvvvvvvvvvuuuuuuuuuuuuttttttttttttttssssssssssssssssssssssrrrrrrrrrrrrrrrrrrrrrrrrrrrrrrrrrrrrrrrrrrrrrrssssssssssssssssssssssttttttttttttttuuuuuuuuuuuuvvvvvvvvvvvwwwwwwwwwwxxxxxxxxxyyyyyyyyyzzzzzzzzz++++..+
(PID.TID 0000.0001) //     26 +..++++zzzzzzzzzyyyyyyyyyyxxxxxxxxxwwwwwwwwwwwvvvvvvvvvvvuuuuuuuuuuuuuttttttttttttttttsssssssssssssssssssssssssssssssrrrrrrrrrrrrrrrrrrsssssssssssssssssssssssssssssssttttttttttttttttuuuuuuuuuuuuuvvvvvvvvvvvwwwwwwwwwwwxxxxxxxxxyyyyyyyyyyzzzzzzzzz++++..+
(PID.TID 0000.0001) //     25 +..++++zzzzzzzzzzyyyyyyyyyxxxxxxxxxxxwwwwwwwwwwwvvvvvvvvvvvvuuuuuuuuuuuuuuttttttttttttttttttssssssssssssssssssssssssssssssssssssssssssssssssssssssssssssssssssssttttttttttttttttttuuuuuuuuuuuuuuvvvvvvvvvvvvwwwwwwwwwwwxxxxxxxxxxxyyyyyyyyyzzzzzzzzzz++++..+
(PID.TID 0000.0001) //     24 +..++++zzzzzzzzzzyyyyyyyyyyyxxxxxxxxxxwwwwwwwwwwwwvvvvvvvvvvvvvuuuuuuuuuuuuuuutttttttttttttttttttttttsssssssssssssssssssssssssssssssssssssssssssssssssstttttttttttttttttttttttuuuuuuuuuuuuuuuvvvvvvvvvvvvvwwwwwwwwwwwwxxxxxxxxxxyyyyyyyyyyyzzzzzzzzzz++++..+
(PID.TID 0000.0001) //     23 +..++++zzzzzzzzzzzyyyyyyyyyyyxxxxxxxxxxxwwwwwwwwwwwwvvvvvvvvvvvvvvuuuuuuuuuuuuuuuuutttttttttttttttttttttttttttttttsssssssssssssssssssssssstttttttttttttttttttttttttttttttuuuuuuuuuuuuuuuuuvvvvvvvvvvvvvvwwwwwwwwwwwwxxxxxxxxxxxyyyyyyyyyyyzzzzzzzzzzz++++..+
(PID.TID 0000.0001) //     22 +..+++++zzzzzzzzzzzyyyyyyyyyyyxxxxxxxxxxxxwwwwwwwwwwwwwvvvvvvvvvvvvvvvuuuuuuuuuuuuuuuuuuuuttttttttttttttttttttttttttttttttttttttttttttttttttttttttttttttttttttttttuuuuuuuuuuuuuuuuuuuuvvvvvvvvvvvvvvvwwwwwwwwwwwwwxxxxxxxxxxxxyyyyyyyyyyyzzzzzzzzzzz+++++..+
(PID.TID 0000.0001) //     21 +..+++++zzzzzzzzzzzyyyyyyyyyyyyxxxxxxxxxxxxxwwwwwwwwwwwwwwvvvvvvvvvvvvvvvvvuuuuuuuuuuuuuuuuuuuuuuuttttttttttttttttttttttttttttttttttttttttttttttttttttttttuuuuuuuuuuuuuuuuuuuuuuuvvvvvvvvvvvvvvvvvwwwwwwwwwwwwwwxxxxxxxxxxxxxyyyyyyyyyyyyzzzzzzzzzzz+++++..+
(PID.TID 0000.0001) //     20 +..+++++zzzzzzzzzzzzyyyyyyyyyyyyyxxxxxxxxxxxxxwwwwwwwwwwwwwwwvvvvvvvvvvvvvvvvvvvuuuuuuuuuuuuuuuuuuuuuuuuuuuuuuuuuttttttttttttttttttttttttttuuuuuuuuuuuuuuuuuuuuuuuuuuuuuuuuuvvvvvvvvvvvvvvvvvvvwwwwwwwwwwwwwwwxxxxxxxxxxxxxyyyyyyyyyyyyyzzzzzzzzzzzz+++++..+
(PID.TID 0000.0001) //     19 +..++++++zzzzzzzzzzzzyyyyyyyyyyyyyyxxxxxxxxxxxxxxwwwwwwwwwwwwwwwwvvvvvvvvvvvvvvvvvvvvvvuuuuuuuuuuuuuuuuuuuuuuuuuuuuuuuuuuuuuuuuuuuuuuuuuuuuuuuuuuuuuuuuuuuuuuuuuuuuuuvvvvvvvvvvvvvvvvvvvvvvwwwwwwwwwwwwwwwwxxxxxxxxxxxxxxyyyyyyyyyyyyyyzzzzzzzzzzzz++++++..+
(PID.TID 0000.0001) //     18 +..++++++zzzzzzzzzzzzzyyyyyyyyyyyyyyyxxxxxxxxxxxxxxxwwwwwwwwwwwwwwwwwwvvvvvvvvvvvvvvvvvvvvvvvvvvuuuuuuuuuuuuuuuuuuuuuuuuuuuuuuuuuuuuuuuuuuuuuuuuuuuuuuuuuuuuvvvvvvvvvvvvvvvvvvvvvvvvvvwwwwwwwwwwwwwwwwwwxxxxxxxxxxxxxxxyyyyyyyyyyyyyyyzzzzzzzzzzzzz++++++..+
(PID.TID 0000.0001) //     17 +..++++++zzzzzzzzzzzzzzzyyyyyyyyyyyyyyyxxxxxxxxxxxxxxxxxwwwwwwwwwwwwwwwwwwwwvvvvvvvvvvvvvvvvvvvvvvvvvvvvvvvvvvvvuuuuuuuuuuuuuuuuuuuuuuuuuuuuvvvvvvvvvvvvvvvvvvvvvvvvvvvvvvvvvvvvwwwwwwwwwwwwwwwwwwwwxxxxxxxxxxxxxxxxxyyyyyyyyyyyyyyyzzzzzzzzzzzzzzz++++++..+
(PID.TID 0000.0001) //     16 +..+++++++zzzzzzzzzzzzzzzyyyyyyyyyyyyyyyyxxxxxxxxxxxxxxxxxxxwwwwwwwwwwwwwwwwwwwwwwwvvvvvvvvvvvvvvvvvvvvvvvvvvvvvvvvvvvvvvvvvvvvvvvvvvvvvvvvvvvvvvvvvvvvvvvvvvvvvvvvvvvvvvwwwwwwwwwwwwwwwwwwwwwwwxxxxxxxxxxxxxxxxxxxyyyyyyyyyyyyyyyyzzzzzzzzzzzzzzz+++++++..+
(PID.TID 0000.0001) //     15 +..+++++++zzzzzzzzzzzzzzzzzyyyyyyyyyyyyyyyyyxxxxxxxxxxxxxxxxxxxxxwwwwwwwwwwwwwwwwwwwwwwwwwwwwvvvvvvvvvvvvvvvvvvvvvvvvvvvvvvvvvvvvvvvvvvvvvvvvvvvvvvvvvvvvvvvvvvwwwwwwwwwwwwwwwwwwwwwwwwwwwwxxxxxxxxxxxxxxxxxxxxxyyyyyyyyyyyyyyyyyzzzzzzzzzzzzzzzzz+++++++..+
(PID.TID 0000.0001) //     14 +..++++++++zzzzzzzzzzzzzzzzzzyyyyyyyyyyyyyyyyyyyxxxxxxxxxxxxxxxxxxxxxxxwwwwwwwwwwwwwwwwwwwwwwwwwwwwwwwwwwwwwwwwvvvvvvvvvvvvvvvvvvvvvvvvvvvvvvwwwwwwwwwwwwwwwwwwwwwwwwwwwwwwwwwwwwwwwwxxxxxxxxxxxxxxxxxxxxxxxyyyyyyyyyyyyyyyyyyyzzzzzzzzzzzzzzzzzz++++++++..+
(PID.TID 0000.0001) //     13 +..+++++++++zzzzzzzzzzzzzzzzzzzyyyyyyyyyyyyyyyyyyyyyxxxxxxxxxxxxxxxxxxxxxxxxxxxwwwwwwwwwwwwwwwwwwwwwwwwwwwwwwwwwwwwwwwwwwwwwwwwwwwwwwwwwwwwwwwwwwwwwwwwwwwwwwwwwwwwwwwwwwwwwwxxxxxxxxxxxxxxxxxxxxxxxxxxxyyyyyyyyyyyyyyyyyyyyyzzzzzzzzzzzzzzzzzzz+++++++++..+
(PID.TID 0000.0001) //     12 +..+++++++++zzzzzzzzzzzzzzzzzzzzzyyyyyyyyyyyyyyyyyyyyyyyyxxxxxxxxxxxxxxxxxxxxxxxxxxxxxxxxxwwwwwwwwwwwwwwwwwwwwwwwwwwwwwwwwwwwwwwwwwwwwwwwwwwwwwwwwwwwwwwwwwwwwwwwwxxxxxxxxxxxxxxxxxxxxxxxxxxxxxxxxxyyyyyyyyyyyyyyyyyyyyyyyyzzzzzzzzzzzzzzzzzzzzz+++++++++..+
(PID.TID 0000.0001) //     11 +..++++++++++zzzzzzzzzzzzzzzzzzzzzzzyyyyyyyyyyyyyyyyyyyyyyyyyyyxxxxxxxxxxxxxxxxxxxxxxxxxxxxxxxxxxxxxxxxxxxxxxxxwwwwwwwwwwwwwwwwwwwwwwwwwwwwwwxxxxxxxxxxxxxxxxxxxxxxxxxxxxxxxxxxxxxxxxxxxxxxxxyyyyyyyyyyyyyyyyyyyyyyyyyyyzzzzzzzzzzzzzzzzzzzzzzz++++++++++..+
(PID.TID 0000.0001) //     10 +..++++++++++++zzzzzzzzzzzzzzzzzzzzzzzzzyyyyyyyyyyyyyyyyyyyyyyyyyyyyyyyyxxxxxxxxxxxxxxxxxxxxxxxxxxxxxxxxxxxxxxxxxxxxxxxxxxxxxxxxxxxxxxxxxxxxxxxxxxxxxxxxxxxxxxxxxxxxxxxxxxxxxxxxxxxxyyyyyyyyyyyyyyyyyyyyyyyyyyyyyyyyzzzzzzzzzzzzzzzzzzzzzzzzz++++++++++++..+
(PID.TID 0000.0001) //      9 +..+++++++++++++zzzzzzzzzzzzzzzzzzzzzzzzzzzzzyyyyyyyyyyyyyyyyyyyyyyyyyyyyyyyyyyyyyyyyxxxxxxxxxxxxxxxxxxxxxxxxxxxxxxxxxxxxxxxxxxxxxxxxxxxxxxxxxxxxxxxxxxxxxxxxxxxxxxxxxxyyyyyyyyyyyyyyyyyyyyyyyyyyyyyyyyyyyyyyyyzzzzzzzzzzzzzzzzzzzzzzzzzzzzz+++++++++++++..+
(PID.TID 0000.0001) //      8 +..+++++++++++++++zzzzzzzzzzzzzzzzzzzzzzzzzzzzzzzzzzyyyyyyyyyyyyyyyyyyyyyyyyyyyyyyyyyyyyyyyyyyyyyyyyyyyyyyyyyyyxxxxxxxxxxxxxxxxxxxxxxxxxxxxxxyyyyyyyyyyyyyyyyyyyyyyyyyyyyyyyyyyyyyyyyyyyyyyyyyyyyyyyyyyyzzzzzzzzzzzzzzzzzzzzzzzzzzzzzzzzzz+++++++++++++++..+
(PID.TID 0000.0001) //      7 +..++++++++++++++++++zzzzzzzzzzzzzzzzzzzzzzzzzzzzzzzzzzzzzzzzyyyyyyyyyyyyyyyyyyyyyyyyyyyyyyyyyyyyyyyyyyyyyyyyyyyyyyyyyyyyyyyyyyyyyyyyyyyyyyyyyyyyyyyyyyyyyyyyyyyyyyyyyyyyyyyyyyyyyyyyyyyyyyyyyyzzzzzzzzzzzzzzzzzzzzzzzzzzzzzzzzzzzzzzzz++++++++++++++++++..+
(PID.TID 0000.0001) //      6 +..+++++++++++++++++++++zzzzzzzzzzzzzzzzzzzzzzzzzzzzzzzzzzzzzzzzzzzzzzzzzzzzyyyyyyyyyyyyyyyyyyyyyyyyyyyyyyyyyyyyyyyyyyyyyyyyyyyyyyyyyyyyyyyyyyyyyyyyyyyyyyyyyyyyyyyyyyyyyyyyyyyyzzzzzzzzzzzzzzzzzzzzzzzzzzzzzzzzzzzzzzzzzzzzzzzzzzzz+++++++++++++++++++++..+
(PID.TID 0000.0001) //      5 +..++++++++++++++++++++++++++zzzzzzzzzzzzzzzzzzzzzzzzzzzzzzzzzzzzzzzzzzzzzzzzzzzzzzzzzzzzzzzzzzzzzzzzzzzzzzzzzzzyyyyyyyyyyyyyyyyyyyyyyyyyyyyzzzzzzzzzzzzzzzzzzzzzzzzzzzzzzzzzzzzzzzzzzzzzzzzzzzzzzzzzzzzzzzzzzzzzzzzzzzzzzzzzzz++++++++++++++++++++++++++..+
(PID.TID 0000.0001) //      4 +..++++++++++++++++++++++++++++++++++zzzzzzzzzzzzzzzzzzzzzzzzzzzzzzzzzzzzzzzzzzzzzzzzzzzzzzzzzzzzzzzzzzzzzzzzzzzzzzzzzzzzzzzzzzzzzzzzzzzzzzzzzzzzzzzzzzzzzzzzzzzzzzzzzzzzzzzzzzzzzzzzzzzzzzzzzzzzzzzzzzzzzzzzzzzzzzzzzz++++++++++++++++++++++++++++++++++..+
(PID.TID 0000.0001) //      3 +..++++++++++++++++++++++++++++++++++++++++++++++++++zzzzzzzzzzzzzzzzzzzzzzzzzzzzzzzzzzzzzzzzzzzzzzzzzzzzzzzzzzzzzzzzzzzzzzzzzzzzzzzzzzzzzzzzzzzzzzzzzzzzzzzzzzzzzzzzzzzzzzzzzzzzzzzzzzzzzzzzzzzzzzzzzz++++++++++++++++++++++++++++++++++++++++++++++++++..+
(PID.TID 0000.0001) //      2 ............................................................................................................................................................................................................................................................
(PID.TID 0000.0001) //      1 ............................................................................................................................................................................................................................................................
(PID.TID 0000.0001) //      0 ............................................................................................................................................................................................................................................................
(PID.TID 0000.0001) //     -1 +..++++++++++++++++++++++++++++++++++++++++++++++++++zzzzzzzzzzzzzzzzzzzzzzzzzzzzzzzzzzzzzzzzzzzzzzzzzzzzzzzzzzzzzzzzzzzzzzzzzzzzzzzzzzzzzzzzzzzzzzzzzzzzzzzzzzzzzzzzzzzzzzzzzzzzzzzzzzzzzzzzzzzzzzzzzz++++++++++++++++++++++++++++++++++++++++++++++++++..+
(PID.TID 0000.0001) // =======================================================
(PID.TID 0000.0001) // END OF FIELD                                          =
(PID.TID 0000.0001) // =======================================================
(PID.TID 0000.0001) 
(PID.TID 0000.0001) GAD_INIT_FIXED: GAD_OlMinSize=  0  0  1
(PID.TID 0000.0001) 
(PID.TID 0000.0001) // ===================================
(PID.TID 0000.0001) // GAD parameters :
(PID.TID 0000.0001) // ===================================
(PID.TID 0000.0001) tempAdvScheme =   /* Temp. Horiz.Advection scheme selector */
(PID.TID 0000.0001)                       2
(PID.TID 0000.0001)     ;
(PID.TID 0000.0001) tempVertAdvScheme =   /* Temp. Vert. Advection scheme selector */
(PID.TID 0000.0001)                       2
(PID.TID 0000.0001)     ;
(PID.TID 0000.0001) tempMultiDimAdvec =   /* use Muti-Dim Advec method for Temp */
(PID.TID 0000.0001)                   F
(PID.TID 0000.0001)     ;
(PID.TID 0000.0001) tempSOM_Advection = /* use 2nd Order Moment Advection for Temp */
(PID.TID 0000.0001)                   F
(PID.TID 0000.0001)     ;
(PID.TID 0000.0001) AdamsBashforthGt = /* apply Adams-Bashforth extrapolation on Gt */
(PID.TID 0000.0001)                   F
(PID.TID 0000.0001)     ;
(PID.TID 0000.0001) AdamsBashforth_T = /* apply Adams-Bashforth extrapolation on Temp */
(PID.TID 0000.0001)                   F
(PID.TID 0000.0001)     ;
(PID.TID 0000.0001) saltAdvScheme =   /* Salt. Horiz.advection scheme selector */
(PID.TID 0000.0001)                       2
(PID.TID 0000.0001)     ;
(PID.TID 0000.0001) saltVertAdvScheme =   /* Salt. Vert. Advection scheme selector */
(PID.TID 0000.0001)                       2
(PID.TID 0000.0001)     ;
(PID.TID 0000.0001) saltMultiDimAdvec =   /* use Muti-Dim Advec method for Salt */
(PID.TID 0000.0001)                   F
(PID.TID 0000.0001)     ;
(PID.TID 0000.0001) saltSOM_Advection = /* use 2nd Order Moment Advection for Salt */
(PID.TID 0000.0001)                   F
(PID.TID 0000.0001)     ;
(PID.TID 0000.0001) AdamsBashforthGs = /* apply Adams-Bashforth extrapolation on Gs */
(PID.TID 0000.0001)                   F
(PID.TID 0000.0001)     ;
(PID.TID 0000.0001) AdamsBashforth_S = /* apply Adams-Bashforth extrapolation on Salt */
(PID.TID 0000.0001)                   F
(PID.TID 0000.0001)     ;
(PID.TID 0000.0001) // ===================================
(PID.TID 0000.0001) %MON fCori_max                    =   1.1232500000000E-04
(PID.TID 0000.0001) %MON fCori_min                    =   9.9975000000000E-05
(PID.TID 0000.0001) %MON fCori_mean                   =   1.0615000000000E-04
(PID.TID 0000.0001) %MON fCori_sd                     =   3.5795425685414E-06
(PID.TID 0000.0001) %MON fCoriG_max                   =   1.1230000000000E-04
(PID.TID 0000.0001) %MON fCoriG_min                   =   9.9950000000000E-05
(PID.TID 0000.0001) %MON fCoriG_mean                  =   1.0612500000000E-04
(PID.TID 0000.0001) %MON fCoriG_sd                    =   3.5795425685412E-06
(PID.TID 0000.0001) %MON fCoriCos_max                 =   0.0000000000000E+00
(PID.TID 0000.0001) %MON fCoriCos_min                 =   0.0000000000000E+00
(PID.TID 0000.0001) %MON fCoriCos_mean                =   0.0000000000000E+00
(PID.TID 0000.0001) %MON fCoriCos_sd                  =   0.0000000000000E+00
(PID.TID 0000.0001) INI_CG2D: CG2D normalisation factor =  2.0001203197379843E-04
(PID.TID 0000.0001) 
(PID.TID 0000.0001) // =======================================================
(PID.TID 0000.0001) // Model configuration
(PID.TID 0000.0001) // =======================================================
(PID.TID 0000.0001) //
(PID.TID 0000.0001) // "Physical" paramters ( PARM01 in namelist )
(PID.TID 0000.0001) //
(PID.TID 0000.0001) buoyancyRelation = /* Type of relation to get Buoyancy */
(PID.TID 0000.0001)               'OCEANIC'
(PID.TID 0000.0001)     ;
(PID.TID 0000.0001) fluidIsAir   =  /* fluid major constituent is Air */
(PID.TID 0000.0001)                   F
(PID.TID 0000.0001)     ;
(PID.TID 0000.0001) fluidIsWater =  /* fluid major constituent is Water */
(PID.TID 0000.0001)                   T
(PID.TID 0000.0001)     ;
(PID.TID 0000.0001) usingPCoords =  /* use p (or p*) vertical coordinate */
(PID.TID 0000.0001)                   F
(PID.TID 0000.0001)     ;
(PID.TID 0000.0001) usingZCoords =  /* use z (or z*) vertical coordinate */
(PID.TID 0000.0001)                   T
(PID.TID 0000.0001)     ;
(PID.TID 0000.0001) tRef =   /* Reference temperature profile ( oC or K ) */
(PID.TID 0000.0001)                 2.000000000000000E+01       /* K =  1 */
(PID.TID 0000.0001)     ;
(PID.TID 0000.0001) sRef =   /* Reference salinity profile ( psu ) */
(PID.TID 0000.0001)                 3.000000000000000E+01       /* K =  1 */
(PID.TID 0000.0001)     ;
(PID.TID 0000.0001) useStrainTensionVisc= /* Use StrainTension Form of Viscous Operator */
(PID.TID 0000.0001)                   F
(PID.TID 0000.0001)     ;
(PID.TID 0000.0001) useVariableVisc = /* Use variable horizontal viscosity */
(PID.TID 0000.0001)                   F
(PID.TID 0000.0001)     ;
(PID.TID 0000.0001) useHarmonicVisc = /* Use harmonic horizontal viscosity */
(PID.TID 0000.0001)                   T
(PID.TID 0000.0001)     ;
(PID.TID 0000.0001) useBiharmonicVisc= /* Use biharmonic horiz.  viscosity */
(PID.TID 0000.0001)                   F
(PID.TID 0000.0001)     ;
(PID.TID 0000.0001) useSmag3D = /* Use isotropic 3-D Smagorinsky viscosity */
(PID.TID 0000.0001)                   F
(PID.TID 0000.0001)     ;
(PID.TID 0000.0001) viscAh  =   /* Lateral harmonic viscosity ( m^2/s ) */
(PID.TID 0000.0001)                 4.000000000000000E+02
(PID.TID 0000.0001)     ;
(PID.TID 0000.0001) viscA4  =   /* Lateral biharmonic viscosity ( m^4/s ) */
(PID.TID 0000.0001)                 0.000000000000000E+00
(PID.TID 0000.0001)     ;
(PID.TID 0000.0001) no_slip_sides =  /* Viscous BCs: No-slip sides */
(PID.TID 0000.0001)                   T
(PID.TID 0000.0001)     ;
(PID.TID 0000.0001) sideDragFactor = /* side-drag scaling factor (non-dim) */
(PID.TID 0000.0001)                 2.000000000000000E+00
(PID.TID 0000.0001)     ;
(PID.TID 0000.0001) viscArNr = /* vertical profile of vertical viscosity ( m^2/s )*/
(PID.TID 0000.0001)                 0.000000000000000E+00       /* K =  1 */
(PID.TID 0000.0001)     ;
(PID.TID 0000.0001) no_slip_bottom =  /* Viscous BCs: No-slip bottom */
(PID.TID 0000.0001)                   T
(PID.TID 0000.0001)     ;
(PID.TID 0000.0001) bottomVisc_pCell = /* Partial-cell in bottom Visc. BC */
(PID.TID 0000.0001)                   F
(PID.TID 0000.0001)     ;
(PID.TID 0000.0001) bottomDragLinear = /* linear bottom-drag coefficient ( m/s ) */
(PID.TID 0000.0001)                 0.000000000000000E+00
(PID.TID 0000.0001)     ;
(PID.TID 0000.0001) bottomDragQuadratic = /* quadratic bottom-drag coefficient (-) */
(PID.TID 0000.0001)                 0.000000000000000E+00
(PID.TID 0000.0001)     ;
(PID.TID 0000.0001) selectBotDragQuadr = /* select quadratic bottom drag options */
(PID.TID 0000.0001)                      -1
(PID.TID 0000.0001)     ;
(PID.TID 0000.0001) diffKhT =   /* Laplacian diffusion of heat laterally ( m^2/s ) */
(PID.TID 0000.0001)                 0.000000000000000E+00
(PID.TID 0000.0001)     ;
(PID.TID 0000.0001) diffK4T =   /* Biharmonic diffusion of heat laterally ( m^4/s ) */
(PID.TID 0000.0001)                 0.000000000000000E+00
(PID.TID 0000.0001)     ;
(PID.TID 0000.0001) diffKhS =   /* Laplacian diffusion of salt laterally ( m^2/s ) */
(PID.TID 0000.0001)                 0.000000000000000E+00
(PID.TID 0000.0001)     ;
(PID.TID 0000.0001) diffK4S =   /* Biharmonic diffusion of salt laterally ( m^4/s ) */
(PID.TID 0000.0001)                 0.000000000000000E+00
(PID.TID 0000.0001)     ;
(PID.TID 0000.0001) diffKrNrT = /* vertical profile of vertical diffusion of Temp ( m^2/s )*/
(PID.TID 0000.0001)                 0.000000000000000E+00       /* K =  1 */
(PID.TID 0000.0001)     ;
(PID.TID 0000.0001) diffKrNrS = /* vertical profile of vertical diffusion of Salt ( m^2/s )*/
(PID.TID 0000.0001)                 0.000000000000000E+00       /* K =  1 */
(PID.TID 0000.0001)     ;
(PID.TID 0000.0001) diffKrBL79surf = /* Surface diffusion for Bryan and Lewis 79 ( m^2/s ) */
(PID.TID 0000.0001)                 0.000000000000000E+00
(PID.TID 0000.0001)     ;
(PID.TID 0000.0001) diffKrBL79deep = /* Deep diffusion for Bryan and Lewis 1979 ( m^2/s ) */
(PID.TID 0000.0001)                 0.000000000000000E+00
(PID.TID 0000.0001)     ;
(PID.TID 0000.0001) diffKrBL79scl = /* Depth scale for Bryan and Lewis 1979 ( m ) */
(PID.TID 0000.0001)                 2.000000000000000E+02
(PID.TID 0000.0001)     ;
(PID.TID 0000.0001) diffKrBL79Ho = /* Turning depth for Bryan and Lewis 1979 ( m ) */
(PID.TID 0000.0001)                -2.000000000000000E+03
(PID.TID 0000.0001)     ;
(PID.TID 0000.0001) ivdc_kappa = /* Implicit Vertical Diffusivity for Convection ( m^2/s) */
(PID.TID 0000.0001)                 0.000000000000000E+00
(PID.TID 0000.0001)     ;
(PID.TID 0000.0001) hMixCriteria=  /* Criteria for mixed-layer diagnostic */
(PID.TID 0000.0001)                -8.000000000000000E-01
(PID.TID 0000.0001)     ;
(PID.TID 0000.0001) dRhoSmall =  /* Parameter for mixed-layer diagnostic */
(PID.TID 0000.0001)                 1.000000000000000E-06
(PID.TID 0000.0001)     ;
(PID.TID 0000.0001) hMixSmooth=  /* Smoothing parameter for mixed-layer diagnostic */
(PID.TID 0000.0001)                 0.000000000000000E+00
(PID.TID 0000.0001)     ;
(PID.TID 0000.0001) eosType =  /* Type of Equation of State */
(PID.TID 0000.0001)               'LINEAR'
(PID.TID 0000.0001)     ;
(PID.TID 0000.0001) tAlpha = /* Linear EOS thermal expansion coefficient ( 1/oC ) */
(PID.TID 0000.0001)                 2.000000000000000E-04
(PID.TID 0000.0001)     ;
(PID.TID 0000.0001) sBeta  = /* Linear EOS haline contraction coefficient ( 1/psu ) */
(PID.TID 0000.0001)                 7.400000000000000E-04
(PID.TID 0000.0001)     ;
(PID.TID 0000.0001) rhoNil    = /* Reference density for Linear EOS ( kg/m^3 ) */
(PID.TID 0000.0001)                 9.998000000000000E+02
(PID.TID 0000.0001)     ;
(PID.TID 0000.0001) selectP_inEOS_Zc = /* select pressure to use in EOS (0,1,2,3) */
(PID.TID 0000.0001)                       0
(PID.TID 0000.0001)     0= -g*rhoConst*z ; 1= pRef (from tRef,sRef); 2= Hyd P ; 3= Hyd+NH P
(PID.TID 0000.0001)     ;
(PID.TID 0000.0001) surf_pRef = /* Surface reference pressure ( Pa ) */
(PID.TID 0000.0001)                 1.013250000000000E+05
(PID.TID 0000.0001)     ;
(PID.TID 0000.0001) HeatCapacity_Cp =  /* Specific heat capacity ( J/kg/K ) */
(PID.TID 0000.0001)                 3.994000000000000E+03
(PID.TID 0000.0001)     ;
(PID.TID 0000.0001) celsius2K = /* 0 degree Celsius converted to Kelvin ( K ) */
(PID.TID 0000.0001)                 2.731500000000000E+02
(PID.TID 0000.0001)     ;
(PID.TID 0000.0001) rhoConst  = /* Reference density (Boussinesq)  ( kg/m^3 ) */
(PID.TID 0000.0001)                 1.000000000000000E+03
(PID.TID 0000.0001)     ;
(PID.TID 0000.0001) rhoFacC = /* normalized Reference density @ cell-Center (-) */
(PID.TID 0000.0001)                 1.000000000000000E+00       /* K =  1 */
(PID.TID 0000.0001)     ;
(PID.TID 0000.0001) rhoFacF = /* normalized Reference density @ W-Interface (-) */
(PID.TID 0000.0001)     2 @  1.000000000000000E+00              /* K =  1:  2 */
(PID.TID 0000.0001)     ;
(PID.TID 0000.0001) rhoConstFresh = /* Fresh-water reference density ( kg/m^3 ) */
(PID.TID 0000.0001)                 1.000000000000000E+03
(PID.TID 0000.0001)     ;
(PID.TID 0000.0001) gravity =   /* Gravitational acceleration ( m/s^2 ) */
(PID.TID 0000.0001)                 9.810000000000000E+00
(PID.TID 0000.0001)     ;
(PID.TID 0000.0001) gBaro =   /* Barotropic gravity ( m/s^2 ) */
(PID.TID 0000.0001)                 9.810000000000000E+00
(PID.TID 0000.0001)     ;
(PID.TID 0000.0001) gravFacC = /* gravity factor (vs surf.) @ cell-Center (-) */
(PID.TID 0000.0001)                 1.000000000000000E+00       /* K =  1 */
(PID.TID 0000.0001)     ;
(PID.TID 0000.0001) gravFacF = /* gravity factor (vs surf.) @ W-Interface (-) */
(PID.TID 0000.0001)     2 @  1.000000000000000E+00              /* K =  1:  2 */
(PID.TID 0000.0001)     ;
(PID.TID 0000.0001) rotationPeriod =   /* Rotation Period ( s ) */
(PID.TID 0000.0001)                 8.616400000000000E+04
(PID.TID 0000.0001)     ;
(PID.TID 0000.0001) omega =   /* Angular velocity ( rad/s ) */
(PID.TID 0000.0001)                 7.292123516990375E-05
(PID.TID 0000.0001)     ;
(PID.TID 0000.0001) f0 =   /* Reference coriolis parameter ( 1/s ) */
(PID.TID 0000.0001)                 1.000000000000000E-04
(PID.TID 0000.0001)     ;
(PID.TID 0000.0001) beta =   /* Beta ( 1/(m.s) ) */
(PID.TID 0000.0001)                 9.999999999999999E-12
(PID.TID 0000.0001)     ;
(PID.TID 0000.0001) fPrime =   /* Second coriolis parameter ( 1/s ) */
(PID.TID 0000.0001)                 0.000000000000000E+00
(PID.TID 0000.0001)     ;
(PID.TID 0000.0001) rigidLid =   /* Rigid lid on/off flag */
(PID.TID 0000.0001)                   F
(PID.TID 0000.0001)     ;
(PID.TID 0000.0001) implicitFreeSurface =   /* Implicit free surface on/off flag */
(PID.TID 0000.0001)                   T
(PID.TID 0000.0001)     ;
(PID.TID 0000.0001) freeSurfFac =   /* Implicit free surface factor */
(PID.TID 0000.0001)                 1.000000000000000E+00
(PID.TID 0000.0001)     ;
(PID.TID 0000.0001) implicSurfPress =  /* Surface Pressure implicit factor (0-1)*/
(PID.TID 0000.0001)                 1.000000000000000E+00
(PID.TID 0000.0001)     ;
(PID.TID 0000.0001) implicDiv2DFlow =  /* Barot. Flow Div. implicit factor (0-1)*/
(PID.TID 0000.0001)                 1.000000000000000E+00
(PID.TID 0000.0001)     ;
(PID.TID 0000.0001) uniformLin_PhiSurf = /* use uniform Bo_surf on/off flag*/
(PID.TID 0000.0001)                   T
(PID.TID 0000.0001)     ;
(PID.TID 0000.0001) uniformFreeSurfLev = /* free-surface level-index is uniform */
(PID.TID 0000.0001)                   T
(PID.TID 0000.0001)     ;
(PID.TID 0000.0001) hFacMin =   /* minimum partial cell factor (hFac) */
(PID.TID 0000.0001)                 1.000000000000000E-01
(PID.TID 0000.0001)     ;
(PID.TID 0000.0001) hFacMinDr = /* minimum partial cell thickness ( m) */
(PID.TID 0000.0001)                 0.000000000000000E+00
(PID.TID 0000.0001)     ;
(PID.TID 0000.0001) exactConserv =  /* Exact Volume Conservation on/off flag*/
(PID.TID 0000.0001)                   F
(PID.TID 0000.0001)     ;
(PID.TID 0000.0001) linFSConserveTr = /* Tracer correction for Lin Free Surface on/off flag*/
(PID.TID 0000.0001)                   F
(PID.TID 0000.0001)     ;
(PID.TID 0000.0001) nonlinFreeSurf = /* Non-linear Free Surf. options (-1,0,1,2,3)*/
(PID.TID 0000.0001)                       0
(PID.TID 0000.0001)      -1,0= Off ; 1,2,3= On, 2=+rescale gU,gV, 3=+update cg2d solv.
(PID.TID 0000.0001)     ;
(PID.TID 0000.0001) hFacInf =   /* lower threshold for hFac (nonlinFreeSurf only)*/
(PID.TID 0000.0001)                 2.000000000000000E-01
(PID.TID 0000.0001)     ;
(PID.TID 0000.0001) hFacSup =   /* upper threshold for hFac (nonlinFreeSurf only)*/
(PID.TID 0000.0001)                 2.000000000000000E+00
(PID.TID 0000.0001)     ;
(PID.TID 0000.0001) select_rStar = /* r* Vertical coord. options (=0 r coord.; >0 uses r*)*/
(PID.TID 0000.0001)                       0
(PID.TID 0000.0001)     ;
(PID.TID 0000.0001) useRealFreshWaterFlux = /* Real Fresh Water Flux on/off flag*/
(PID.TID 0000.0001)                   F
(PID.TID 0000.0001)     ;
(PID.TID 0000.0001) temp_EvPrRn = /* Temp. of Evap/Prec/R (UNSET=use local T)(oC)*/
(PID.TID 0000.0001)                 1.234567000000000E+05
(PID.TID 0000.0001)     ;
(PID.TID 0000.0001) salt_EvPrRn = /* Salin. of Evap/Prec/R (UNSET=use local S)(psu)*/
(PID.TID 0000.0001)                 0.000000000000000E+00
(PID.TID 0000.0001)     ;
(PID.TID 0000.0001) selectAddFluid = /* option for mass source/sink of fluid (=0: off) */
(PID.TID 0000.0001)                       0
(PID.TID 0000.0001)     ;
(PID.TID 0000.0001) temp_addMass = /* Temp. of addMass array (UNSET=use local T)(oC)*/
(PID.TID 0000.0001)                 1.234567000000000E+05
(PID.TID 0000.0001)     ;
(PID.TID 0000.0001) salt_addMass = /* Salin. of addMass array (UNSET=use local S)(psu)*/
(PID.TID 0000.0001)                 0.000000000000000E+00
(PID.TID 0000.0001)     ;
(PID.TID 0000.0001) convertFW2Salt = /* convert F.W. Flux to Salt Flux (-1=use local S)(psu)*/
(PID.TID 0000.0001)                 3.500000000000000E+01
(PID.TID 0000.0001)     ;
(PID.TID 0000.0001) use3Dsolver = /* use 3-D pressure solver on/off flag */
(PID.TID 0000.0001)                   F
(PID.TID 0000.0001)     ;
(PID.TID 0000.0001) nonHydrostatic =  /* Non-Hydrostatic on/off flag */
(PID.TID 0000.0001)                   F
(PID.TID 0000.0001)     ;
(PID.TID 0000.0001) nh_Am2 = /* Non-Hydrostatic terms scaling factor */
(PID.TID 0000.0001)                 1.000000000000000E+00
(PID.TID 0000.0001)     ;
(PID.TID 0000.0001) implicitNHPress = /* Non-Hyd Pressure implicit factor (0-1)*/
(PID.TID 0000.0001)                 1.000000000000000E+00
(PID.TID 0000.0001)     ;
(PID.TID 0000.0001) selectNHfreeSurf = /* Non-Hyd (free-)Surface option */
(PID.TID 0000.0001)                       0
(PID.TID 0000.0001)     ;
(PID.TID 0000.0001) quasiHydrostatic = /* Quasi-Hydrostatic on/off flag */
(PID.TID 0000.0001)                   F
(PID.TID 0000.0001)     ;
(PID.TID 0000.0001) calc_wVelocity = /* vertical velocity calculation on/off flag */
(PID.TID 0000.0001)                   T
(PID.TID 0000.0001)     ;
(PID.TID 0000.0001) momStepping =  /* Momentum equation on/off flag */
(PID.TID 0000.0001)                   T
(PID.TID 0000.0001)     ;
(PID.TID 0000.0001) vectorInvariantMomentum= /* Vector-Invariant Momentum on/off */
(PID.TID 0000.0001)                   F
(PID.TID 0000.0001)     ;
(PID.TID 0000.0001) momAdvection =  /* Momentum advection on/off flag */
(PID.TID 0000.0001)                   T
(PID.TID 0000.0001)     ;
(PID.TID 0000.0001) momViscosity =  /* Momentum viscosity on/off flag */
(PID.TID 0000.0001)                   T
(PID.TID 0000.0001)     ;
(PID.TID 0000.0001) momImplVertAdv= /* Momentum implicit vert. advection on/off*/
(PID.TID 0000.0001)                   F
(PID.TID 0000.0001)     ;
(PID.TID 0000.0001) implicitViscosity = /* Implicit viscosity on/off flag */
(PID.TID 0000.0001)                   F
(PID.TID 0000.0001)     ;
(PID.TID 0000.0001) selectImplicitDrag= /* Implicit bot Drag options (0,1,2)*/
(PID.TID 0000.0001)                       0
(PID.TID 0000.0001)     0= Expl. ; 1= Impl. on provis. Vel ; 2= Fully Impl (with surf.P)
(PID.TID 0000.0001)     ;
(PID.TID 0000.0001) metricTerms =  /* metric-Terms on/off flag */
(PID.TID 0000.0001)                   F
(PID.TID 0000.0001)     ;
(PID.TID 0000.0001) useNHMTerms = /* Non-Hydrostatic Metric-Terms on/off */
(PID.TID 0000.0001)                   F
(PID.TID 0000.0001)     ;
(PID.TID 0000.0001) selectCoriMap = /* Coriolis Map options (0,1,2,3)*/
(PID.TID 0000.0001)                       1
(PID.TID 0000.0001)     0= f-Plane ; 1= Beta-Plane ; 2= Spherical ; 3= read from file
(PID.TID 0000.0001)     ;
(PID.TID 0000.0001) use3dCoriolis = /* 3-D Coriolis on/off flag */
(PID.TID 0000.0001)                   F
(PID.TID 0000.0001)     ;
(PID.TID 0000.0001) useCoriolis =  /* Coriolis on/off flag */
(PID.TID 0000.0001)                   T
(PID.TID 0000.0001)     ;
(PID.TID 0000.0001) useCDscheme =  /* CD scheme on/off flag */
(PID.TID 0000.0001)                   F
(PID.TID 0000.0001)     ;
(PID.TID 0000.0001) selectCoriScheme= /* Scheme selector for Coriolis-Term */
(PID.TID 0000.0001)                       0
(PID.TID 0000.0001)    = 0 : original discretization (simple averaging, no hFac)
(PID.TID 0000.0001)    = 1 : Wet-point averaging (Jamar & Ozer 1986)
(PID.TID 0000.0001)    = 2 : energy conserving scheme (no hFac weight)
(PID.TID 0000.0001)    = 3 : energy conserving scheme using Wet-point averaging
(PID.TID 0000.0001)     ;
(PID.TID 0000.0001) momForcing =  /* Momentum forcing on/off flag */
(PID.TID 0000.0001)                   T
(PID.TID 0000.0001)     ;
(PID.TID 0000.0001) momTidalForcing = /* Momentum Tidal forcing on/off flag */
(PID.TID 0000.0001)                   T
(PID.TID 0000.0001)     ;
(PID.TID 0000.0001) momPressureForcing =  /* Momentum pressure term on/off flag */
(PID.TID 0000.0001)                   T
(PID.TID 0000.0001)     ;
(PID.TID 0000.0001) implicitIntGravWave= /* Implicit Internal Gravity Wave flag */
(PID.TID 0000.0001)                   F
(PID.TID 0000.0001)     ;
(PID.TID 0000.0001) staggerTimeStep =    /* Stagger time stepping on/off flag */
(PID.TID 0000.0001)                   F
(PID.TID 0000.0001)     ;
(PID.TID 0000.0001) doResetHFactors = /* reset thickness factors @ each time-step */
(PID.TID 0000.0001)                   F
(PID.TID 0000.0001)     ;
(PID.TID 0000.0001) multiDimAdvection =  /* enable/disable Multi-Dim Advection */
(PID.TID 0000.0001)                   T
(PID.TID 0000.0001)     ;
(PID.TID 0000.0001) useMultiDimAdvec =   /* Multi-Dim Advection is/is-not used */
(PID.TID 0000.0001)                   F
(PID.TID 0000.0001)     ;
(PID.TID 0000.0001) implicitDiffusion = /* Implicit Diffusion on/off flag */
(PID.TID 0000.0001)                   F
(PID.TID 0000.0001)     ;
(PID.TID 0000.0001) tempStepping =  /* Temperature equation on/off flag */
(PID.TID 0000.0001)                   F
(PID.TID 0000.0001)     ;
(PID.TID 0000.0001) tempAdvection = /* Temperature advection on/off flag */
(PID.TID 0000.0001)                   F
(PID.TID 0000.0001)     ;
(PID.TID 0000.0001) tempImplVertAdv = /* Temp. implicit vert. advection on/off */
(PID.TID 0000.0001)                   F
(PID.TID 0000.0001)     ;
(PID.TID 0000.0001) tempForcing  =  /* Temperature forcing on/off flag */
(PID.TID 0000.0001)                   F
(PID.TID 0000.0001)     ;
(PID.TID 0000.0001) doThetaClimRelax = /* apply SST relaxation on/off flag */
(PID.TID 0000.0001)                   F
(PID.TID 0000.0001)     ;
(PID.TID 0000.0001) tempIsActiveTr = /* Temp. is a dynamically Active Tracer */
(PID.TID 0000.0001)                   F
(PID.TID 0000.0001)     ;
(PID.TID 0000.0001) saltStepping =  /* Salinity equation on/off flag */
(PID.TID 0000.0001)                   F
(PID.TID 0000.0001)     ;
(PID.TID 0000.0001) saltAdvection = /* Salinity advection on/off flag */
(PID.TID 0000.0001)                   F
(PID.TID 0000.0001)     ;
(PID.TID 0000.0001) saltImplVertAdv = /* Sali. implicit vert. advection on/off */
(PID.TID 0000.0001)                   F
(PID.TID 0000.0001)     ;
(PID.TID 0000.0001) saltForcing  =  /* Salinity forcing on/off flag */
(PID.TID 0000.0001)                   F
(PID.TID 0000.0001)     ;
(PID.TID 0000.0001) doSaltClimRelax = /* apply SSS relaxation on/off flag */
(PID.TID 0000.0001)                   F
(PID.TID 0000.0001)     ;
(PID.TID 0000.0001) saltIsActiveTr = /* Salt  is a dynamically Active Tracer */
(PID.TID 0000.0001)                   F
(PID.TID 0000.0001)     ;
(PID.TID 0000.0001)  readBinaryPrec = /* Precision used for reading binary files */
(PID.TID 0000.0001)                      32
(PID.TID 0000.0001)     ;
(PID.TID 0000.0001) writeBinaryPrec = /* Precision used for writing binary files */
(PID.TID 0000.0001)                      32
(PID.TID 0000.0001)     ;
(PID.TID 0000.0001)  rwSuffixType =   /* select format of mds file suffix */
(PID.TID 0000.0001)                       0
(PID.TID 0000.0001)    = 0 : myIter (I10.10) ;   = 1 : 100*myTime (100th sec) ;
(PID.TID 0000.0001)    = 2 : myTime (seconds);   = 3 : myTime/360 (10th of hr);
(PID.TID 0000.0001)    = 4 : myTime/3600 (hours)
(PID.TID 0000.0001)     ;
(PID.TID 0000.0001)  globalFiles = /* write "global" (=not per tile) files */
(PID.TID 0000.0001)                   F
(PID.TID 0000.0001)     ;
(PID.TID 0000.0001)  useSingleCpuIO = /* only master MPI process does I/O */
(PID.TID 0000.0001)                   T
(PID.TID 0000.0001)     ;
(PID.TID 0000.0001)  useSingleCpuInput = /* only master process reads input */
(PID.TID 0000.0001)                   T
(PID.TID 0000.0001)     ;
(PID.TID 0000.0001) /* debLev[*]  : level of debug & auxiliary message printing */
(PID.TID 0000.0001) debLevZero =  0 ; /* level of disabled aux. msg printing */
(PID.TID 0000.0001)    debLevA =  1 ; /* level of minimum  aux. msg printing */
(PID.TID 0000.0001)    debLevB =  2 ; /* level of low aux. print (report read-file opening)*/
(PID.TID 0000.0001)    debLevC =  3 ; /* level of moderate debug prt (most pkgs debug msg) */
(PID.TID 0000.0001)    debLevD =  4 ; /* level of enhanced debug prt (add DEBUG_STATS prt) */
(PID.TID 0000.0001)    debLevE =  5 ; /* level of extensive debug printing */
(PID.TID 0000.0001) debugLevel =  /* select debug printing level */
(PID.TID 0000.0001)                       2
(PID.TID 0000.0001)     ;
(PID.TID 0000.0001)  plotLevel =  /* select PLOT_FIELD printing level */
(PID.TID 0000.0001)                       2
(PID.TID 0000.0001)     ;
(PID.TID 0000.0001) //
(PID.TID 0000.0001) // Elliptic solver(s) paramters ( PARM02 in namelist )
(PID.TID 0000.0001) //
(PID.TID 0000.0001) cg2dMaxIters =   /* Upper limit on 2d con. grad iterations  */
(PID.TID 0000.0001)                    1000
(PID.TID 0000.0001)     ;
(PID.TID 0000.0001) cg2dChkResFreq =   /* 2d con. grad convergence test frequency */
(PID.TID 0000.0001)                       1
(PID.TID 0000.0001)     ;
(PID.TID 0000.0001) cg2dUseMinResSol= /* use cg2d last-iter(=0) / min-resid.(=1) solution */
(PID.TID 0000.0001)                       0
(PID.TID 0000.0001)     ;
(PID.TID 0000.0001) cg2dTargetResidual =   /* 2d con. grad target residual  */
(PID.TID 0000.0001)                 1.000000000000000E-07
(PID.TID 0000.0001)     ;
(PID.TID 0000.0001) cg2dTargetResWunit =   /* CG2d target residual [W units] */
(PID.TID 0000.0001)                -1.000000000000000E+00
(PID.TID 0000.0001)     ;
(PID.TID 0000.0001) cg2dPreCondFreq =   /* Freq. for updating cg2d preconditioner */
(PID.TID 0000.0001)                       1
(PID.TID 0000.0001)     ;
(PID.TID 0000.0001) useSRCGSolver =  /* use single reduction CG solver(s) */
(PID.TID 0000.0001)                   F
(PID.TID 0000.0001)     ;
(PID.TID 0000.0001) printResidualFreq = /* Freq. for printing CG residual */
(PID.TID 0000.0001)                       0
(PID.TID 0000.0001)     ;
(PID.TID 0000.0001) //
(PID.TID 0000.0001) // Time stepping paramters ( PARM03 in namelist )
(PID.TID 0000.0001) //
(PID.TID 0000.0001) deltaTMom =   /* Momentum equation timestep ( s ) */
(PID.TID 0000.0001)                 1.200000000000000E+03
(PID.TID 0000.0001)     ;
(PID.TID 0000.0001) deltaTFreeSurf = /* FreeSurface equation timestep ( s ) */
(PID.TID 0000.0001)                 1.200000000000000E+03
(PID.TID 0000.0001)     ;
(PID.TID 0000.0001) dTtracerLev =  /* Tracer equation timestep ( s ) */
(PID.TID 0000.0001)                 1.200000000000000E+03       /* K =  1 */
(PID.TID 0000.0001)     ;
(PID.TID 0000.0001) deltaTClock  =   /* Model clock timestep ( s ) */
(PID.TID 0000.0001)                 1.200000000000000E+03
(PID.TID 0000.0001)     ;
(PID.TID 0000.0001) cAdjFreq =   /* Convective adjustment interval ( s ) */
(PID.TID 0000.0001)                 0.000000000000000E+00
(PID.TID 0000.0001)     ;
(PID.TID 0000.0001) momForcingOutAB = /* =1: take Momentum Forcing out of Adams-Bash. stepping */
(PID.TID 0000.0001)                       0
(PID.TID 0000.0001)     ;
(PID.TID 0000.0001) tracForcingOutAB = /* =1: take T,S,pTr Forcing out of Adams-Bash. stepping */
(PID.TID 0000.0001)                       0
(PID.TID 0000.0001)     ;
(PID.TID 0000.0001) momDissip_In_AB = /* put Dissipation Tendency in Adams-Bash. stepping */
(PID.TID 0000.0001)                   T
(PID.TID 0000.0001)     ;
(PID.TID 0000.0001) doAB_onGtGs = /* apply AB on Tendencies (rather than on T,S)*/
(PID.TID 0000.0001)                   T
(PID.TID 0000.0001)     ;
(PID.TID 0000.0001) abEps =   /* Adams-Bashforth-2 stabilizing weight */
(PID.TID 0000.0001)                 1.000000000000000E-02
(PID.TID 0000.0001)     ;
(PID.TID 0000.0001) applyExchUV_early = /* Apply EXCH to U,V earlier in time-step */
(PID.TID 0000.0001)                   F
(PID.TID 0000.0001)     ;
(PID.TID 0000.0001) pickupStrictlyMatch= /* stop if pickup do not strictly match */
(PID.TID 0000.0001)                   T
(PID.TID 0000.0001)     ;
(PID.TID 0000.0001) nIter0   =   /* Run starting timestep number */
(PID.TID 0000.0001)                       0
(PID.TID 0000.0001)     ;
(PID.TID 0000.0001) nTimeSteps = /* Number of timesteps */
(PID.TID 0000.0001)                   21600
(PID.TID 0000.0001)     ;
(PID.TID 0000.0001) nEndIter =   /* Run ending timestep number */
(PID.TID 0000.0001)                   21600
(PID.TID 0000.0001)     ;
(PID.TID 0000.0001) baseTime =   /* Model base time ( s ) */
(PID.TID 0000.0001)                 0.000000000000000E+00
(PID.TID 0000.0001)     ;
(PID.TID 0000.0001) startTime =  /* Run start time ( s ) */
(PID.TID 0000.0001)                 0.000000000000000E+00
(PID.TID 0000.0001)     ;
(PID.TID 0000.0001) endTime  =   /* Integration ending time ( s ) */
(PID.TID 0000.0001)                 2.592000000000000E+07
(PID.TID 0000.0001)     ;
(PID.TID 0000.0001) pChkPtFreq = /* Permanent restart/pickup file interval ( s ) */
(PID.TID 0000.0001)                 3.110400000000000E+07
(PID.TID 0000.0001)     ;
(PID.TID 0000.0001) chkPtFreq  = /* Rolling restart/pickup file interval ( s ) */
(PID.TID 0000.0001)                 2.592000000000000E+07
(PID.TID 0000.0001)     ;
(PID.TID 0000.0001) pickup_write_mdsio =   /* Model IO flag. */
(PID.TID 0000.0001)                   T
(PID.TID 0000.0001)     ;
(PID.TID 0000.0001) pickup_read_mdsio =   /* Model IO flag. */
(PID.TID 0000.0001)                   T
(PID.TID 0000.0001)     ;
(PID.TID 0000.0001) writePickupAtEnd =   /* Model IO flag. */
(PID.TID 0000.0001)                   T
(PID.TID 0000.0001)     ;
(PID.TID 0000.0001) dumpFreq =   /* Model state write out interval ( s ). */
(PID.TID 0000.0001)                 8.640000000000000E+04
(PID.TID 0000.0001)     ;
(PID.TID 0000.0001) dumpInitAndLast= /* write out Initial & Last iter. model state */
(PID.TID 0000.0001)                   T
(PID.TID 0000.0001)     ;
(PID.TID 0000.0001) snapshot_mdsio =   /* Model IO flag. */
(PID.TID 0000.0001)                   T
(PID.TID 0000.0001)     ;
(PID.TID 0000.0001) monitorFreq =   /* Monitor output interval ( s ). */
(PID.TID 0000.0001)                 8.640000000000000E+04
(PID.TID 0000.0001)     ;
(PID.TID 0000.0001) monitorSelect = /* select group of variables to monitor */
(PID.TID 0000.0001)                       2
(PID.TID 0000.0001)     ;
(PID.TID 0000.0001) monitor_stdio =   /* Model IO flag. */
(PID.TID 0000.0001)                   T
(PID.TID 0000.0001)     ;
(PID.TID 0000.0001) externForcingPeriod =   /* forcing period (s) */
(PID.TID 0000.0001)                 0.000000000000000E+00
(PID.TID 0000.0001)     ;
(PID.TID 0000.0001) externForcingCycle =   /* period of the cyle (s). */
(PID.TID 0000.0001)                 0.000000000000000E+00
(PID.TID 0000.0001)     ;
(PID.TID 0000.0001) tauThetaClimRelax =   /* relaxation time scale (s) */
(PID.TID 0000.0001)                 0.000000000000000E+00
(PID.TID 0000.0001)     ;
(PID.TID 0000.0001) tauSaltClimRelax =   /* relaxation time scale (s) */
(PID.TID 0000.0001)                 0.000000000000000E+00
(PID.TID 0000.0001)     ;
(PID.TID 0000.0001) latBandClimRelax =   /* max. Lat. where relaxation */
(PID.TID 0000.0001)                 3.720000000000000E+06
(PID.TID 0000.0001)     ;
(PID.TID 0000.0001) //
(PID.TID 0000.0001) // Gridding paramters ( PARM04 in namelist )
(PID.TID 0000.0001) //
(PID.TID 0000.0001) usingCartesianGrid = /* Cartesian coordinates flag ( True/False ) */
(PID.TID 0000.0001)                   T
(PID.TID 0000.0001)     ;
(PID.TID 0000.0001) usingCylindricalGrid = /* Cylindrical coordinates flag ( True/False ) */
(PID.TID 0000.0001)                   F
(PID.TID 0000.0001)     ;
(PID.TID 0000.0001) usingSphericalPolarGrid = /* Spherical coordinates flag ( True/False ) */
(PID.TID 0000.0001)                   F
(PID.TID 0000.0001)     ;
(PID.TID 0000.0001) usingCurvilinearGrid = /* Curvilinear coordinates flag ( True/False ) */
(PID.TID 0000.0001)                   F
(PID.TID 0000.0001)     ;
(PID.TID 0000.0001) useMin4hFacEdges = /* set hFacW,S as minimum of adjacent hFacC factor */
(PID.TID 0000.0001)                   F
(PID.TID 0000.0001)     ;
(PID.TID 0000.0001) interViscAr_pCell = /* account for partial-cell in interior vert. viscosity */
(PID.TID 0000.0001)                   F
(PID.TID 0000.0001)     ;
(PID.TID 0000.0001) interDiffKr_pCell = /* account for partial-cell in interior vert. diffusion */
(PID.TID 0000.0001)                   F
(PID.TID 0000.0001)     ;
(PID.TID 0000.0001) pCellMix_select = /* option to enhance mixing near surface & bottom */
(PID.TID 0000.0001)                       0
(PID.TID 0000.0001)     ;
(PID.TID 0000.0001) selectSigmaCoord = /* Hybrid-Sigma Vert. Coordinate option */
(PID.TID 0000.0001)                       0
(PID.TID 0000.0001)     ;
(PID.TID 0000.0001) rSigmaBnd = /* r/sigma transition ( units of r ==  m ) */
(PID.TID 0000.0001)                 1.234567000000000E+05
(PID.TID 0000.0001)     ;
(PID.TID 0000.0001) rkSign =   /* index orientation relative to vertical coordinate */
(PID.TID 0000.0001)                -1.000000000000000E+00
(PID.TID 0000.0001)     ;
(PID.TID 0000.0001) gravitySign = /* gravity orientation relative to vertical coordinate */
(PID.TID 0000.0001)                -1.000000000000000E+00
(PID.TID 0000.0001)     ;
(PID.TID 0000.0001) seaLev_Z =  /* reference height of sea-level [m] */
(PID.TID 0000.0001)                 0.000000000000000E+00
(PID.TID 0000.0001)     ;
(PID.TID 0000.0001) top_Pres =  /* reference pressure at the top [Pa] */
(PID.TID 0000.0001)                 0.000000000000000E+00
(PID.TID 0000.0001)     ;
(PID.TID 0000.0001) mass2rUnit = /* convert mass per unit area [kg/m2] to r-units [m] */
(PID.TID 0000.0001)                 1.000000000000000E-03
(PID.TID 0000.0001)     ;
(PID.TID 0000.0001) rUnit2mass = /* convert r-units [m] to mass per unit area [kg/m2] */
(PID.TID 0000.0001)                 1.000000000000000E+03
(PID.TID 0000.0001)     ;
(PID.TID 0000.0001) drC =   /* C spacing ( units of r ) */
(PID.TID 0000.0001)     2 @  2.500000000000000E+03              /* K =  1:  2 */
(PID.TID 0000.0001)     ;
(PID.TID 0000.0001) drF =   /* W spacing ( units of r ) */
(PID.TID 0000.0001)                 5.000000000000000E+03       /* K =  1 */
(PID.TID 0000.0001)     ;
(PID.TID 0000.0001) delX = /* U spacing ( m - cartesian, degrees - spherical ) */
(PID.TID 0000.0001)   248 @  5.000000000000000E+03              /* I =  1:248 */
(PID.TID 0000.0001)     ;
(PID.TID 0000.0001) delY = /* V spacing ( m - cartesian, degrees - spherical ) */
(PID.TID 0000.0001)   248 @  5.000000000000000E+03              /* J =  1:248 */
(PID.TID 0000.0001)     ;
(PID.TID 0000.0001) xgOrigin = /* X-axis origin of West  edge (cartesian: m, lat-lon: deg) */
(PID.TID 0000.0001)                -5.000000000000000E+03
(PID.TID 0000.0001)     ;
(PID.TID 0000.0001) ygOrigin = /* Y-axis origin of South edge (cartesian: m, lat-lon: deg) */
(PID.TID 0000.0001)                -5.000000000000000E+03
(PID.TID 0000.0001)     ;
(PID.TID 0000.0001) rSphere =  /* Radius ( ignored - cartesian, m - spherical ) */
(PID.TID 0000.0001)                 6.370000000000000E+06
(PID.TID 0000.0001)     ;
(PID.TID 0000.0001) deepAtmosphere = /* Deep/Shallow Atmosphere flag (True/False) */
(PID.TID 0000.0001)                   F
(PID.TID 0000.0001)     ;
(PID.TID 0000.0001) xC =  /* xC(:,1,:,1) : P-point X coord ( deg. or m if cartesian) */
(PID.TID 0000.0001)                -2.500000000000000E+03,      /* I =  1 */
(PID.TID 0000.0001)                 2.500000000000000E+03,      /* I =  2 */
(PID.TID 0000.0001)                 7.500000000000000E+03,      /* I =  3 */
(PID.TID 0000.0001)      . . .
(PID.TID 0000.0001)                 2.925000000000000E+05,      /* I = 60 */
(PID.TID 0000.0001)                 2.975000000000000E+05,      /* I = 61 */
(PID.TID 0000.0001)                 3.025000000000000E+05,      /* I = 62 */
(PID.TID 0000.0001)                 3.075000000000000E+05,      /* I = 63 */
(PID.TID 0000.0001)                 3.125000000000000E+05,      /* I = 64 */
(PID.TID 0000.0001)                 3.175000000000000E+05,      /* I = 65 */
(PID.TID 0000.0001)      . . .
(PID.TID 0000.0001)                 6.025000000000000E+05,      /* I =122 */
(PID.TID 0000.0001)                 6.075000000000000E+05,      /* I =123 */
(PID.TID 0000.0001)                 6.125000000000000E+05,      /* I =124 */
(PID.TID 0000.0001)                 6.175000000000000E+05,      /* I =125 */
(PID.TID 0000.0001)                 6.225000000000000E+05,      /* I =126 */
(PID.TID 0000.0001)                 6.275000000000000E+05,      /* I =127 */
(PID.TID 0000.0001)      . . .
(PID.TID 0000.0001)                 9.125000000000000E+05,      /* I =184 */
(PID.TID 0000.0001)                 9.175000000000000E+05,      /* I =185 */
(PID.TID 0000.0001)                 9.225000000000000E+05,      /* I =186 */
(PID.TID 0000.0001)                 9.275000000000000E+05,      /* I =187 */
(PID.TID 0000.0001)                 9.325000000000000E+05,      /* I =188 */
(PID.TID 0000.0001)                 9.375000000000000E+05,      /* I =189 */
(PID.TID 0000.0001)      . . .
(PID.TID 0000.0001)                 1.222500000000000E+06,      /* I =246 */
(PID.TID 0000.0001)                 1.227500000000000E+06,      /* I =247 */
(PID.TID 0000.0001)                 1.232500000000000E+06       /* I =248 */
(PID.TID 0000.0001)     ;
(PID.TID 0000.0001) yC =  /* yC(1,:,1,:) : P-point Y coord ( deg. or m if cartesian) */
(PID.TID 0000.0001)                -2.500000000000000E+03,      /* J =  1 */
(PID.TID 0000.0001)                 2.500000000000000E+03,      /* J =  2 */
(PID.TID 0000.0001)                 7.500000000000000E+03,      /* J =  3 */
(PID.TID 0000.0001)      . . .
(PID.TID 0000.0001)                 2.925000000000000E+05,      /* J = 60 */
(PID.TID 0000.0001)                 2.975000000000000E+05,      /* J = 61 */
(PID.TID 0000.0001)                 3.025000000000000E+05,      /* J = 62 */
(PID.TID 0000.0001)                 3.075000000000000E+05,      /* J = 63 */
(PID.TID 0000.0001)                 3.125000000000000E+05,      /* J = 64 */
(PID.TID 0000.0001)                 3.175000000000000E+05,      /* J = 65 */
(PID.TID 0000.0001)      . . .
(PID.TID 0000.0001)                 6.025000000000000E+05,      /* J =122 */
(PID.TID 0000.0001)                 6.075000000000000E+05,      /* J =123 */
(PID.TID 0000.0001)                 6.125000000000000E+05,      /* J =124 */
(PID.TID 0000.0001)                 6.175000000000000E+05,      /* J =125 */
(PID.TID 0000.0001)                 6.225000000000000E+05,      /* J =126 */
(PID.TID 0000.0001)                 6.275000000000000E+05,      /* J =127 */
(PID.TID 0000.0001)      . . .
(PID.TID 0000.0001)                 9.125000000000000E+05,      /* J =184 */
(PID.TID 0000.0001)                 9.175000000000000E+05,      /* J =185 */
(PID.TID 0000.0001)                 9.225000000000000E+05,      /* J =186 */
(PID.TID 0000.0001)                 9.275000000000000E+05,      /* J =187 */
(PID.TID 0000.0001)                 9.325000000000000E+05,      /* J =188 */
(PID.TID 0000.0001)                 9.375000000000000E+05,      /* J =189 */
(PID.TID 0000.0001)      . . .
(PID.TID 0000.0001)                 1.222500000000000E+06,      /* J =246 */
(PID.TID 0000.0001)                 1.227500000000000E+06,      /* J =247 */
(PID.TID 0000.0001)                 1.232500000000000E+06       /* J =248 */
(PID.TID 0000.0001)     ;
(PID.TID 0000.0001) rcoord = /* P-point R coordinate (  units of r ) */
(PID.TID 0000.0001)                -2.500000000000000E+03       /* K =  1 */
(PID.TID 0000.0001)     ;
(PID.TID 0000.0001) rF =   /* W-Interf. R coordinate (  units of r ) */
(PID.TID 0000.0001)                 0.000000000000000E+00,      /* K =  1 */
(PID.TID 0000.0001)                -5.000000000000000E+03       /* K =  2 */
(PID.TID 0000.0001)     ;
(PID.TID 0000.0001) deepFacC = /* deep-model grid factor @ cell-Center (-) */
(PID.TID 0000.0001)                 1.000000000000000E+00       /* K =  1 */
(PID.TID 0000.0001)     ;
(PID.TID 0000.0001) deepFacF = /* deep-model grid factor @ W-Interface (-) */
(PID.TID 0000.0001)     2 @  1.000000000000000E+00              /* K =  1:  2 */
(PID.TID 0000.0001)     ;
(PID.TID 0000.0001) rVel2wUnit = /* convert units: rVel -> wSpeed (=1 if z-coord)*/
(PID.TID 0000.0001)     2 @  1.000000000000000E+00              /* K =  1:  2 */
(PID.TID 0000.0001)     ;
(PID.TID 0000.0001) wUnit2rVel = /* convert units: wSpeed -> rVel (=1 if z-coord)*/
(PID.TID 0000.0001)     2 @  1.000000000000000E+00              /* K =  1:  2 */
(PID.TID 0000.0001)     ;
(PID.TID 0000.0001) dBdrRef = /* Vertical grad. of reference buoyancy [(m/s/r)^2] */
(PID.TID 0000.0001)                 0.000000000000000E+00       /* K =  1 */
(PID.TID 0000.0001)     ;
(PID.TID 0000.0001) rotateGrid = /* use rotated grid ( True/False ) */
(PID.TID 0000.0001)                   F
(PID.TID 0000.0001)     ;
(PID.TID 0000.0001) phiEuler = /* Euler angle, rotation about original z-coordinate [rad] */
(PID.TID 0000.0001)                 0.000000000000000E+00
(PID.TID 0000.0001)     ;
(PID.TID 0000.0001) thetaEuler = /* Euler angle, rotation about new x-coordinate [rad] */
(PID.TID 0000.0001)                 0.000000000000000E+00
(PID.TID 0000.0001)     ;
(PID.TID 0000.0001) psiEuler = /* Euler angle, rotation about new z-coordinate [rad] */
(PID.TID 0000.0001)                 0.000000000000000E+00
(PID.TID 0000.0001)     ;
(PID.TID 0000.0001) dxF =  /* dxF(:,1,:,1) ( units: m ) */
(PID.TID 0000.0001)   248 @  5.000000000000000E+03              /* I =  1:248 */
(PID.TID 0000.0001)     ;
(PID.TID 0000.0001) dxF =  /* dxF(1,:,1,:) ( units: m ) */
(PID.TID 0000.0001)   248 @  5.000000000000000E+03              /* J =  1:248 */
(PID.TID 0000.0001)     ;
(PID.TID 0000.0001) dyF =  /* dyF(:,1,:,1) ( units: m ) */
(PID.TID 0000.0001)   248 @  5.000000000000000E+03              /* I =  1:248 */
(PID.TID 0000.0001)     ;
(PID.TID 0000.0001) dyF =  /* dyF(1,:,1,:) ( units: m ) */
(PID.TID 0000.0001)   248 @  5.000000000000000E+03              /* J =  1:248 */
(PID.TID 0000.0001)     ;
(PID.TID 0000.0001) dxG =  /* dxG(:,1,:,1) ( units: m ) */
(PID.TID 0000.0001)   248 @  5.000000000000000E+03              /* I =  1:248 */
(PID.TID 0000.0001)     ;
(PID.TID 0000.0001) dxG =  /* dxG(1,:,1,:) ( units: m ) */
(PID.TID 0000.0001)   248 @  5.000000000000000E+03              /* J =  1:248 */
(PID.TID 0000.0001)     ;
(PID.TID 0000.0001) dyG =  /* dyG(:,1,:,1) ( units: m ) */
(PID.TID 0000.0001)   248 @  5.000000000000000E+03              /* I =  1:248 */
(PID.TID 0000.0001)     ;
(PID.TID 0000.0001) dyG =  /* dyG(1,:,1,:) ( units: m ) */
(PID.TID 0000.0001)   248 @  5.000000000000000E+03              /* J =  1:248 */
(PID.TID 0000.0001)     ;
(PID.TID 0000.0001) dxC =  /* dxC(:,1,:,1) ( units: m ) */
(PID.TID 0000.0001)   248 @  5.000000000000000E+03              /* I =  1:248 */
(PID.TID 0000.0001)     ;
(PID.TID 0000.0001) dxC =  /* dxC(1,:,1,:) ( units: m ) */
(PID.TID 0000.0001)   248 @  5.000000000000000E+03              /* J =  1:248 */
(PID.TID 0000.0001)     ;
(PID.TID 0000.0001) dyC =  /* dyC(:,1,:,1) ( units: m ) */
(PID.TID 0000.0001)   248 @  5.000000000000000E+03              /* I =  1:248 */
(PID.TID 0000.0001)     ;
(PID.TID 0000.0001) dyC =  /* dyC(1,:,1,:) ( units: m ) */
(PID.TID 0000.0001)   248 @  5.000000000000000E+03              /* J =  1:248 */
(PID.TID 0000.0001)     ;
(PID.TID 0000.0001) dxV =  /* dxV(:,1,:,1) ( units: m ) */
(PID.TID 0000.0001)   248 @  5.000000000000000E+03              /* I =  1:248 */
(PID.TID 0000.0001)     ;
(PID.TID 0000.0001) dxV =  /* dxV(1,:,1,:) ( units: m ) */
(PID.TID 0000.0001)   248 @  5.000000000000000E+03              /* J =  1:248 */
(PID.TID 0000.0001)     ;
(PID.TID 0000.0001) dyU =  /* dyU(:,1,:,1) ( units: m ) */
(PID.TID 0000.0001)   248 @  5.000000000000000E+03              /* I =  1:248 */
(PID.TID 0000.0001)     ;
(PID.TID 0000.0001) dyU =  /* dyU(1,:,1,:) ( units: m ) */
(PID.TID 0000.0001)   248 @  5.000000000000000E+03              /* J =  1:248 */
(PID.TID 0000.0001)     ;
(PID.TID 0000.0001) rA  =  /* rA (:,1,:,1) ( units: m^2 ) */
(PID.TID 0000.0001)   248 @  2.500000000000000E+07              /* I =  1:248 */
(PID.TID 0000.0001)     ;
(PID.TID 0000.0001) rA  =  /* rA (1,:,1,:) ( units: m^2 ) */
(PID.TID 0000.0001)   248 @  2.500000000000000E+07              /* J =  1:248 */
(PID.TID 0000.0001)     ;
(PID.TID 0000.0001) rAw =  /* rAw(:,1,:,1) ( units: m^2 ) */
(PID.TID 0000.0001)   248 @  2.500000000000000E+07              /* I =  1:248 */
(PID.TID 0000.0001)     ;
(PID.TID 0000.0001) rAw =  /* rAw(1,:,1,:) ( units: m^2 ) */
(PID.TID 0000.0001)   248 @  2.500000000000000E+07              /* J =  1:248 */
(PID.TID 0000.0001)     ;
(PID.TID 0000.0001) rAs =  /* rAs(:,1,:,1) ( units: m^2 ) */
(PID.TID 0000.0001)   248 @  2.500000000000000E+07              /* I =  1:248 */
(PID.TID 0000.0001)     ;
(PID.TID 0000.0001) rAs =  /* rAs(1,:,1,:) ( units: m^2 ) */
(PID.TID 0000.0001)   248 @  2.500000000000000E+07              /* J =  1:248 */
(PID.TID 0000.0001)     ;
(PID.TID 0000.0001) globalArea = /* Integrated horizontal Area (m^2) */
(PID.TID 0000.0001)                 1.512900000000000E+12
(PID.TID 0000.0001)     ;
(PID.TID 0000.0001) // =======================================================
(PID.TID 0000.0001) // End of Model config. summary
(PID.TID 0000.0001) // =======================================================
(PID.TID 0000.0001) 
(PID.TID 0000.0001) == Packages configuration : Check & print summary ==
(PID.TID 0000.0001) 
(PID.TID 0000.0001) // =======================================================
(PID.TID 0000.0001) // Check Model config. (CONFIG_CHECK):
(PID.TID 0000.0001) // CONFIG_CHECK : Normal End
(PID.TID 0000.0001) // =======================================================
(PID.TID 0000.0001) 
(PID.TID 0000.0001) Start initial hydrostatic pressure computation
(PID.TID 0000.0001) Pressure is predetermined for buoyancyRelation OCEANIC
(PID.TID 0000.0001) 
(PID.TID 0000.0001)  MDS_READ_FIELD: opening global file: wind.bin
(PID.TID 0000.0001) // =======================================================
(PID.TID 0000.0001) // Model current state
(PID.TID 0000.0001) // =======================================================
(PID.TID 0000.0001) 
(PID.TID 0000.0001) // =======================================================
(PID.TID 0000.0001) // Begin MONITOR dynamic field statistics
(PID.TID 0000.0001) // =======================================================
(PID.TID 0000.0001) %MON time_tsnumber                =                     0
(PID.TID 0000.0001) %MON time_secondsf                =   0.0000000000000E+00
(PID.TID 0000.0001) %MON dynstat_eta_max              =   0.0000000000000E+00
(PID.TID 0000.0001) %MON dynstat_eta_min              =   0.0000000000000E+00
(PID.TID 0000.0001) %MON dynstat_eta_mean             =   0.0000000000000E+00
(PID.TID 0000.0001) %MON dynstat_eta_sd               =   0.0000000000000E+00
(PID.TID 0000.0001) %MON dynstat_eta_del2             =   0.0000000000000E+00
(PID.TID 0000.0001) %MON dynstat_uvel_max             =   0.0000000000000E+00
(PID.TID 0000.0001) %MON dynstat_uvel_min             =   0.0000000000000E+00
(PID.TID 0000.0001) %MON dynstat_uvel_mean            =   0.0000000000000E+00
(PID.TID 0000.0001) %MON dynstat_uvel_sd              =   0.0000000000000E+00
(PID.TID 0000.0001) %MON dynstat_uvel_del2            =   0.0000000000000E+00
(PID.TID 0000.0001) %MON dynstat_vvel_max             =   0.0000000000000E+00
(PID.TID 0000.0001) %MON dynstat_vvel_min             =   0.0000000000000E+00
(PID.TID 0000.0001) %MON dynstat_vvel_mean            =   0.0000000000000E+00
(PID.TID 0000.0001) %MON dynstat_vvel_sd              =   0.0000000000000E+00
(PID.TID 0000.0001) %MON dynstat_vvel_del2            =   0.0000000000000E+00
(PID.TID 0000.0001) %MON dynstat_wvel_max             =   0.0000000000000E+00
(PID.TID 0000.0001) %MON dynstat_wvel_min             =   0.0000000000000E+00
(PID.TID 0000.0001) %MON dynstat_wvel_mean            =   0.0000000000000E+00
(PID.TID 0000.0001) %MON dynstat_wvel_sd              =   0.0000000000000E+00
(PID.TID 0000.0001) %MON dynstat_wvel_del2            =   0.0000000000000E+00
(PID.TID 0000.0001) %MON dynstat_theta_max            =   2.0000000000000E+01
(PID.TID 0000.0001) %MON dynstat_theta_min            =   2.0000000000000E+01
(PID.TID 0000.0001) %MON dynstat_theta_mean           =   1.9999999999999E+01
(PID.TID 0000.0001) %MON dynstat_theta_sd             =   1.1972645097557E-12
(PID.TID 0000.0001) %MON dynstat_theta_del2           =   0.0000000000000E+00
(PID.TID 0000.0001) %MON dynstat_salt_max             =   3.0000000000000E+01
(PID.TID 0000.0001) %MON dynstat_salt_min             =   3.0000000000000E+01
(PID.TID 0000.0001) %MON dynstat_salt_mean            =   2.9999999999998E+01
(PID.TID 0000.0001) %MON dynstat_salt_sd              =   2.1529444893531E-12
(PID.TID 0000.0001) %MON dynstat_salt_del2            =   0.0000000000000E+00
(PID.TID 0000.0001) %MON trAdv_CFL_u_max              =   0.0000000000000E+00
(PID.TID 0000.0001) %MON trAdv_CFL_v_max              =   0.0000000000000E+00
(PID.TID 0000.0001) %MON trAdv_CFL_w_max              =   0.0000000000000E+00
(PID.TID 0000.0001) %MON advcfl_uvel_max              =   0.0000000000000E+00
(PID.TID 0000.0001) %MON advcfl_vvel_max              =   0.0000000000000E+00
(PID.TID 0000.0001) %MON advcfl_wvel_max              =   0.0000000000000E+00
(PID.TID 0000.0001) %MON advcfl_W_hf_max              =   0.0000000000000E+00
(PID.TID 0000.0001) %MON pe_b_mean                    =   0.0000000000000E+00
(PID.TID 0000.0001) %MON ke_max                       =   0.0000000000000E+00
(PID.TID 0000.0001) %MON ke_mean                      =   0.0000000000000E+00
(PID.TID 0000.0001) %MON ke_vol                       =   7.2529629296391E+15
(PID.TID 0000.0001) %MON vort_r_min                   =   0.0000000000000E+00
(PID.TID 0000.0001) %MON vort_r_max                   =   0.0000000000000E+00
(PID.TID 0000.0001) %MON vort_a_mean                  =   1.0615000000000E-04
(PID.TID 0000.0001) %MON vort_a_sd                    =   3.5648777557982E-06
(PID.TID 0000.0001) %MON vort_p_mean                  =   1.1210870169429E-04
(PID.TID 0000.0001) %MON vort_p_sd                    =   2.1051093237356E-05
(PID.TID 0000.0001) %MON surfExpan_theta_mean         =   0.0000000000000E+00
(PID.TID 0000.0001) %MON surfExpan_salt_mean          =   0.0000000000000E+00
(PID.TID 0000.0001) // =======================================================
(PID.TID 0000.0001) // End MONITOR dynamic field statistics
(PID.TID 0000.0001) // =======================================================
(PID.TID 0000.0001) SOLVE_FOR_PRESSURE: putPmEinXvector =    F
 cg2d: Sum(rhs),rhsMax =   3.33066907387547E-16  9.99979927190627E-05
 cg2d: Sum(rhs),rhsMax =  -5.56221735337203E-14  1.03488751902536E-04
 cg2d: Sum(rhs),rhsMax =   2.28181017414286E-08  1.06713597041730E-04
 cg2d: Sum(rhs),rhsMax =   3.37072826317453E-08  1.11232970582300E-04
 cg2d: Sum(rhs),rhsMax =   4.69220842180817E-08  1.16414765935523E-04
 cg2d: Sum(rhs),rhsMax =   7.01129080349361E-08  1.22293575100509E-04
 cg2d: Sum(rhs),rhsMax =   1.12770371263338E-07  1.28907487185381E-04
 cg2d: Sum(rhs),rhsMax =   1.49070467969636E-07  1.36126046283516E-04
 cg2d: Sum(rhs),rhsMax =   1.83829998778862E-07  1.43807319556639E-04
 cg2d: Sum(rhs),rhsMax =   2.13845624763565E-07  1.51791816939412E-04
 cg2d: Sum(rhs),rhsMax =   2.40539944296181E-07  1.59995782650842E-04
 cg2d: Sum(rhs),rhsMax =   2.62466324230104E-07  1.68386909887951E-04
 cg2d: Sum(rhs),rhsMax =   2.85695131885255E-07  1.76878499076296E-04
 cg2d: Sum(rhs),rhsMax =   2.99034257578157E-07  1.85449600331467E-04
 cg2d: Sum(rhs),rhsMax =   3.12191820173169E-07  1.94059702783456E-04
 cg2d: Sum(rhs),rhsMax =   3.24865325695978E-07  2.02668711586843E-04
 cg2d: Sum(rhs),rhsMax =   3.44228995585727E-07  2.11257115987062E-04
 cg2d: Sum(rhs),rhsMax =   3.66757493153180E-07  2.19828331095004E-04
 cg2d: Sum(rhs),rhsMax =   3.88430393294392E-07  2.28372092914004E-04
 cg2d: Sum(rhs),rhsMax =   4.09147592805859E-07  2.36993444132114E-04
 cg2d: Sum(rhs),rhsMax =   4.37479132808782E-07  2.45578768240327E-04
 cg2d: Sum(rhs),rhsMax =   4.64977875092032E-07  2.54085684085645E-04
 cg2d: Sum(rhs),rhsMax =   4.91575971650615E-07  2.62571141082863E-04
 cg2d: Sum(rhs),rhsMax =   5.22033442862391E-07  2.70957800440071E-04
 cg2d: Sum(rhs),rhsMax =   5.51474933885299E-07  2.79320208403960E-04
 cg2d: Sum(rhs),rhsMax =   5.84685765803172E-07  2.87593585877801E-04
 cg2d: Sum(rhs),rhsMax =   6.21971250058806E-07  2.95813433550814E-04
 cg2d: Sum(rhs),rhsMax =   6.58084678473170E-07  3.03978996002632E-04
 cg2d: Sum(rhs),rhsMax =   6.93166308018967E-07  3.12059758390726E-04
 cg2d: Sum(rhs),rhsMax =   7.27212586149051E-07  3.20092962509941E-04
 cg2d: Sum(rhs),rhsMax =   7.60318243031577E-07  3.28070400516858E-04
 cg2d: Sum(rhs),rhsMax =   7.97604552127407E-07  3.35968034880997E-04
 cg2d: Sum(rhs),rhsMax =   8.39317195577838E-07  3.43787601886881E-04
 cg2d: Sum(rhs),rhsMax =   8.79903005124305E-07  3.51576241491617E-04
 cg2d: Sum(rhs),rhsMax =   9.19513447883435E-07  3.59295523034926E-04
 cg2d: Sum(rhs),rhsMax =   9.58248384419491E-07  3.66941150998614E-04
 cg2d: Sum(rhs),rhsMax =   9.96139904840820E-07  3.74515086431491E-04
 cg2d: Sum(rhs),rhsMax =   1.03325445466318E-06  3.82021453582318E-04
 cg2d: Sum(rhs),rhsMax =   1.07498729176592E-06  3.89500276351413E-04
 cg2d: Sum(rhs),rhsMax =   1.12158039708432E-06  3.96912394294642E-04
 cg2d: Sum(rhs),rhsMax =   1.16713720688111E-06  4.04297345292527E-04
 cg2d: Sum(rhs),rhsMax =   1.21071373815340E-06  4.12006404813682E-04
 cg2d: Sum(rhs),rhsMax =   1.25340040149635E-06  4.19672758790140E-04
 cg2d: Sum(rhs),rhsMax =   1.29526897010845E-06  4.27297606954190E-04
 cg2d: Sum(rhs),rhsMax =   1.34250316377593E-06  4.34882084872638E-04
 cg2d: Sum(rhs),rhsMax =   1.38886484180034E-06  4.42427296288494E-04
 cg2d: Sum(rhs),rhsMax =   1.43441188560356E-06  4.49934334110470E-04
 cg2d: Sum(rhs),rhsMax =   1.47912424677821E-06  4.57424011670125E-04
 cg2d: Sum(rhs),rhsMax =   1.52308424428149E-06  4.64889794327676E-04
 cg2d: Sum(rhs),rhsMax =   1.56639017345750E-06  4.72320073197829E-04
 cg2d: Sum(rhs),rhsMax =   1.60908048968400E-06  4.79715891052635E-04
 cg2d: Sum(rhs),rhsMax =   1.65716252029102E-06  4.87078246810834E-04
 cg2d: Sum(rhs),rhsMax =   1.70457787643241E-06  4.94408090673979E-04
 cg2d: Sum(rhs),rhsMax =   1.75138639041394E-06  5.01706324116057E-04
 cg2d: Sum(rhs),rhsMax =   1.79761652219224E-06  5.08973805944775E-04
 cg2d: Sum(rhs),rhsMax =   1.84332343058924E-06  5.16211359984804E-04
 cg2d: Sum(rhs),rhsMax =   1.89505811090673E-06  5.23419782896693E-04
 cg2d: Sum(rhs),rhsMax =   1.94620930091260E-06  5.30599848948875E-04
 cg2d: Sum(rhs),rhsMax =   1.99681274642982E-06  5.37754272758725E-04
 cg2d: Sum(rhs),rhsMax =   2.04683425175656E-06  5.44901703626083E-04
 cg2d: Sum(rhs),rhsMax =   2.09639378254134E-06  5.52022529710377E-04
 cg2d: Sum(rhs),rhsMax =   2.14551637986449E-06  5.59117452737615E-04
 cg2d: Sum(rhs),rhsMax =   2.19424940312019E-06  5.66187151101990E-04
 cg2d: Sum(rhs),rhsMax =   2.24260491615835E-06  5.73232279346432E-04
 cg2d: Sum(rhs),rhsMax =   2.29063366680160E-06  5.80253468665497E-04
 cg2d: Sum(rhs),rhsMax =   2.33835171287167E-06  5.87251328215575E-04
 cg2d: Sum(rhs),rhsMax =   2.38579833697350E-06  5.94226446840398E-04
 cg2d: Sum(rhs),rhsMax =   2.43298947835702E-06  6.01179394810274E-04
 cg2d: Sum(rhs),rhsMax =   2.47995900112818E-06  6.08110725279740E-04
 cg2d: Sum(rhs),rhsMax =   2.52672869865966E-06  6.15020975326515E-04
 cg2d: Sum(rhs),rhsMax =   2.57963985009213E-06  6.21910666415660E-04
 cg2d: Sum(rhs),rhsMax =   2.63228674596272E-06  6.28780305448795E-04
(PID.TID 0000.0001)      cg2d_init_res =   2.85839304204177E-01
(PID.TID 0000.0001)      cg2d_iters(min,last) =      -1     407
(PID.TID 0000.0001)      cg2d_last_res =   9.89917799133090E-08
(PID.TID 0000.0001) // =======================================================
(PID.TID 0000.0001) // Begin MONITOR dynamic field statistics
(PID.TID 0000.0001) // =======================================================
(PID.TID 0000.0001) %MON time_tsnumber                =                    72
(PID.TID 0000.0001) %MON time_secondsf                =   8.6400000000000E+04
(PID.TID 0000.0001) %MON dynstat_eta_max              =   3.4635513349243E-03
(PID.TID 0000.0001) %MON dynstat_eta_min              =  -3.5624284380768E-03
(PID.TID 0000.0001) %MON dynstat_eta_mean             =  -8.1207656135524E-12
(PID.TID 0000.0001) %MON dynstat_eta_sd               =   1.9655605533898E-03
(PID.TID 0000.0001) %MON dynstat_eta_del2             =   1.0335676871008E-08
(PID.TID 0000.0001) %MON dynstat_uvel_max             =   1.7097577998434E-03
(PID.TID 0000.0001) %MON dynstat_uvel_min             =  -1.5792251888245E-03
(PID.TID 0000.0001) %MON dynstat_uvel_mean            =  -1.5130577037739E-07
(PID.TID 0000.0001) %MON dynstat_uvel_sd              =   9.0900304081830E-04
(PID.TID 0000.0001) %MON dynstat_uvel_del2            =   1.2343715839536E-07
(PID.TID 0000.0001) %MON dynstat_vvel_max             =   1.7280282214377E-03
(PID.TID 0000.0001) %MON dynstat_vvel_min             =  -1.5703397416172E-03
(PID.TID 0000.0001) %MON dynstat_vvel_mean            =  -1.2278868223038E-06
(PID.TID 0000.0001) %MON dynstat_vvel_sd              =   4.8628520755833E-04
(PID.TID 0000.0001) %MON dynstat_vvel_del2            =   1.2108732416779E-07
(PID.TID 0000.0001) %MON dynstat_wvel_max             =   4.0709261199563E-08
(PID.TID 0000.0001) %MON dynstat_wvel_min             =  -4.1547379573349E-08
(PID.TID 0000.0001) %MON dynstat_wvel_mean            =  -2.1814160480835E-22
(PID.TID 0000.0001) %MON dynstat_wvel_sd              =   2.2645473834962E-08
(PID.TID 0000.0001) %MON dynstat_wvel_del2            =   1.5110445898578E-13
(PID.TID 0000.0001) %MON dynstat_theta_max            =   2.0000000000000E+01
(PID.TID 0000.0001) %MON dynstat_theta_min            =   2.0000000000000E+01
(PID.TID 0000.0001) %MON dynstat_theta_mean           =   1.9999999999999E+01
(PID.TID 0000.0001) %MON dynstat_theta_sd             =   1.1972645097557E-12
(PID.TID 0000.0001) %MON dynstat_theta_del2           =   0.0000000000000E+00
(PID.TID 0000.0001) %MON dynstat_salt_max             =   3.0000000000000E+01
(PID.TID 0000.0001) %MON dynstat_salt_min             =   3.0000000000000E+01
(PID.TID 0000.0001) %MON dynstat_salt_mean            =   2.9999999999998E+01
(PID.TID 0000.0001) %MON dynstat_salt_sd              =   2.1529444893531E-12
(PID.TID 0000.0001) %MON dynstat_salt_del2            =   0.0000000000000E+00
(PID.TID 0000.0001) %MON trAdv_CFL_u_max              =   4.0469908920648E-04
(PID.TID 0000.0001) %MON trAdv_CFL_v_max              =   4.0859545400102E-04
(PID.TID 0000.0001) %MON trAdv_CFL_w_max              =   1.0494918098828E-08
(PID.TID 0000.0001) %MON advcfl_uvel_max              =   4.1034187196243E-04
(PID.TID 0000.0001) %MON advcfl_vvel_max              =   4.1472677314505E-04
(PID.TID 0000.0001) %MON advcfl_wvel_max              =   1.9942742195207E-08
(PID.TID 0000.0001) %MON advcfl_W_hf_max              =   0.0000000000000E+00
(PID.TID 0000.0001) %MON pe_b_mean                    =   3.9528163052843E-09
(PID.TID 0000.0001) %MON ke_max                       =   1.4928573811017E-06
(PID.TID 0000.0001) %MON ke_mean                      =   5.2898873428035E-07
(PID.TID 0000.0001) %MON ke_vol                       =   7.2529629296391E+15
(PID.TID 0000.0001) %MON vort_r_min                   =  -1.5740124112127E-07
(PID.TID 0000.0001) %MON vort_r_max                   =   1.7297473259713E-07
(PID.TID 0000.0001) %MON vort_a_mean                  =   1.0615000000000E-04
(PID.TID 0000.0001) %MON vort_a_sd                    =   3.5649876027196E-06
(PID.TID 0000.0001) %MON vort_p_mean                  =   1.1210870169429E-04
(PID.TID 0000.0001) %MON vort_p_sd                    =   2.1049988065213E-05
(PID.TID 0000.0001) %MON surfExpan_theta_mean         =  -1.6013347917379E-21
(PID.TID 0000.0001) %MON surfExpan_salt_mean          =  -2.0950513890762E-21
(PID.TID 0000.0001) // =======================================================
(PID.TID 0000.0001) // End MONITOR dynamic field statistics
(PID.TID 0000.0001) // =======================================================
 cg2d: Sum(rhs),rhsMax =   2.68469604067234E-06  6.35630383767970E-04
 cg2d: Sum(rhs),rhsMax =   2.73689719706982E-06  6.42461378383584E-04
 cg2d: Sum(rhs),rhsMax =   2.78889389793147E-06  6.49273751726905E-04
 cg2d: Sum(rhs),rhsMax =   2.84071237485750E-06  6.56067952251861E-04
 cg2d: Sum(rhs),rhsMax =   2.89937801395412E-06  6.62844414475812E-04
 cg2d: Sum(rhs),rhsMax =   2.95781790290994E-06  6.69603561201967E-04
 cg2d: Sum(rhs),rhsMax =   3.01603386801408E-06  6.76345801542323E-04
 cg2d: Sum(rhs),rhsMax =   3.07405326213650E-06  6.83071533326972E-04
 cg2d: Sum(rhs),rhsMax =   3.13188929024211E-06  6.89781142981095E-04
 cg2d: Sum(rhs),rhsMax =   3.18956509445800E-06  6.96475006024577E-04
 cg2d: Sum(rhs),rhsMax =   3.24708657301054E-06  7.03153487422283E-04
 cg2d: Sum(rhs),rhsMax =   3.30448338811684E-06  7.09816941908215E-04
 cg2d: Sum(rhs),rhsMax =   3.36175210077783E-06  7.16465714283755E-04
 cg2d: Sum(rhs),rhsMax =   3.41890841007442E-06  7.23102922170713E-04
 cg2d: Sum(rhs),rhsMax =   3.47593998012430E-06  7.29730893956907E-04
 cg2d: Sum(rhs),rhsMax =   3.53290887339375E-06  7.36344840844577E-04
 cg2d: Sum(rhs),rhsMax =   3.58978816192290E-06  7.42945073802959E-04
 cg2d: Sum(rhs),rhsMax =   3.64661020837986E-06  7.49531895288601E-04
 cg2d: Sum(rhs),rhsMax =   3.70336605788613E-06  7.56105599537314E-04
 cg2d: Sum(rhs),rhsMax =   3.76009965960544E-06  7.62666472843115E-04
 cg2d: Sum(rhs),rhsMax =   3.81678540049835E-06  7.69214793821712E-04
 cg2d: Sum(rhs),rhsMax =   3.87343211255553E-06  7.75750833657716E-04
 cg2d: Sum(rhs),rhsMax =   3.93005367170518E-06  7.82274856337484E-04
 cg2d: Sum(rhs),rhsMax =   3.98665841386259E-06  7.88787118869685E-04
 cg2d: Sum(rhs),rhsMax =   4.04323850002053E-06  7.95287871496451E-04
 cg2d: Sum(rhs),rhsMax =   4.09982851931612E-06  8.01777357897375E-04
 cg2d: Sum(rhs),rhsMax =   4.15638747114366E-06  8.08255815387864E-04
 cg2d: Sum(rhs),rhsMax =   4.21296141940586E-06  8.14723475112409E-04
 cg2d: Sum(rhs),rhsMax =   4.26952618104437E-06  8.21180562232816E-04
 cg2d: Sum(rhs),rhsMax =   4.32609930572925E-06  8.27627296110693E-04
 cg2d: Sum(rhs),rhsMax =   4.38266132631038E-06  8.34063890483822E-04
 cg2d: Sum(rhs),rhsMax =   4.43923444615191E-06  8.40490553635682E-04
 cg2d: Sum(rhs),rhsMax =   4.49581136774402E-06  8.46907488558116E-04
 cg2d: Sum(rhs),rhsMax =   4.55240136888746E-06  8.53314893107308E-04
 cg2d: Sum(rhs),rhsMax =   4.60898966649081E-06  8.59712960153440E-04
 cg2d: Sum(rhs),rhsMax =   4.66558265083128E-06  8.66101877724591E-04
 cg2d: Sum(rhs),rhsMax =   4.72218536735902E-06  8.72481829145425E-04
 cg2d: Sum(rhs),rhsMax =   4.77878978245860E-06  8.78852993171323E-04
 cg2d: Sum(rhs),rhsMax =   4.83541134556342E-06  8.85215544118030E-04
 cg2d: Sum(rhs),rhsMax =   4.89202815830148E-06  8.91569651987267E-04
 cg2d: Sum(rhs),rhsMax =   4.94864342695522E-06  8.97915482588300E-04
 cg2d: Sum(rhs),rhsMax =   5.00525999562462E-06  9.04253197655411E-04
 cg2d: Sum(rhs),rhsMax =   5.06187782374490E-06  9.10582954961463E-04
 cg2d: Sum(rhs),rhsMax =   5.11847987752501E-06  9.16904908427557E-04
 cg2d: Sum(rhs),rhsMax =   5.17508902225794E-06  9.23219208228766E-04
 cg2d: Sum(rhs),rhsMax =   5.23167113038181E-06  9.29526000896268E-04
 cg2d: Sum(rhs),rhsMax =   5.28826684859096E-06  9.35825429415919E-04
 cg2d: Sum(rhs),rhsMax =   5.33811727213007E-06  9.42117633860269E-04
 cg2d: Sum(rhs),rhsMax =   5.38797051632955E-06  9.48402749443888E-04
 cg2d: Sum(rhs),rhsMax =   5.43786462785245E-06  9.54680909318858E-04
 cg2d: Sum(rhs),rhsMax =   5.48774692703258E-06  9.60952243494468E-04
 cg2d: Sum(rhs),rhsMax =   5.53765253379079E-06  9.67216878462160E-04
 cg2d: Sum(rhs),rhsMax =   5.58141024975534E-06  9.73474938018883E-04
 cg2d: Sum(rhs),rhsMax =   5.62519987834520E-06  9.79726542654683E-04
 cg2d: Sum(rhs),rhsMax =   5.66901586931956E-06  9.85971810099684E-04
 cg2d: Sum(rhs),rhsMax =   5.71284813606632E-06  9.92210855495407E-04
 cg2d: Sum(rhs),rhsMax =   5.75668991249778E-06  9.98443791119770E-04
 cg2d: Sum(rhs),rhsMax =   5.80054164145416E-06  1.00467072662436E-03
 cg2d: Sum(rhs),rhsMax =   5.84439298369210E-06  1.01089176906940E-03
 cg2d: Sum(rhs),rhsMax =   5.88826365818806E-06  1.01710702299878E-03
 cg2d: Sum(rhs),rhsMax =   5.93211090378631E-06  1.02331659049967E-03
 cg2d: Sum(rhs),rhsMax =   5.97595047589772E-06  1.02952057126322E-03
 cg2d: Sum(rhs),rhsMax =   6.01978197581343E-06  1.03571906264342E-03
 cg2d: Sum(rhs),rhsMax =   6.06358751158165E-06  1.04191215971421E-03
 cg2d: Sum(rhs),rhsMax =   6.10736417502866E-06  1.04809995532492E-03
 cg2d: Sum(rhs),rhsMax =   6.15110006098318E-06  1.05428254015386E-03
 cg2d: Sum(rhs),rhsMax =   6.19481494532059E-06  1.06046000276033E-03
 cg2d: Sum(rhs),rhsMax =   6.23848497710577E-06  1.06663242963536E-03
 cg2d: Sum(rhs),rhsMax =   6.28210706024590E-06  1.07279990525044E-03
 cg2d: Sum(rhs),rhsMax =   6.32565934535756E-06  1.07896535022901E-03
 cg2d: Sum(rhs),rhsMax =   6.36913121847271E-06  1.08513024725668E-03
 cg2d: Sum(rhs),rhsMax =   6.40635444605631E-06  1.09129065119205E-03
(PID.TID 0000.0001)      cg2d_init_res =   1.43891588389832E-01
(PID.TID 0000.0001)      cg2d_iters(min,last) =      -1     409
(PID.TID 0000.0001)      cg2d_last_res =   9.75420766740277E-08
(PID.TID 0000.0001) // =======================================================
(PID.TID 0000.0001) // Begin MONITOR dynamic field statistics
(PID.TID 0000.0001) // =======================================================
(PID.TID 0000.0001) %MON time_tsnumber                =                   144
(PID.TID 0000.0001) %MON time_secondsf                =   1.7280000000000E+05
(PID.TID 0000.0001) %MON dynstat_eta_max              =   6.9727702132832E-03
(PID.TID 0000.0001) %MON dynstat_eta_min              =  -7.1458734553683E-03
(PID.TID 0000.0001) %MON dynstat_eta_mean             =  -3.3651493651408E-11
(PID.TID 0000.0001) %MON dynstat_eta_sd               =   3.8878261033080E-03
(PID.TID 0000.0001) %MON dynstat_eta_del2             =   2.3195866036498E-08
(PID.TID 0000.0001) %MON dynstat_uvel_max             =   3.3597388796630E-03
(PID.TID 0000.0001) %MON dynstat_uvel_min             =  -3.1414174803395E-03
(PID.TID 0000.0001) %MON dynstat_uvel_mean            =  -2.9674646061688E-07
(PID.TID 0000.0001) %MON dynstat_uvel_sd              =   1.7887453006990E-03
(PID.TID 0000.0001) %MON dynstat_uvel_del2            =   2.0066378975834E-07
(PID.TID 0000.0001) %MON dynstat_vvel_max             =   3.6371151043863E-03
(PID.TID 0000.0001) %MON dynstat_vvel_min             =  -3.0028589233485E-03
(PID.TID 0000.0001) %MON dynstat_vvel_mean            =  -1.1629915377405E-06
(PID.TID 0000.0001) %MON dynstat_vvel_sd              =   9.7889990970118E-04
(PID.TID 0000.0001) %MON dynstat_vvel_del2            =   2.0160979442248E-07
(PID.TID 0000.0001) %MON dynstat_wvel_max             =   4.1919446661668E-08
(PID.TID 0000.0001) %MON dynstat_wvel_min             =  -4.2043019932189E-08
(PID.TID 0000.0001) %MON dynstat_wvel_mean            =   1.5190080951070E-22
(PID.TID 0000.0001) %MON dynstat_wvel_sd              =   2.2240397684822E-08
(PID.TID 0000.0001) %MON dynstat_wvel_del2            =   1.5290350569671E-13
(PID.TID 0000.0001) %MON dynstat_theta_max            =   2.0000000000000E+01
(PID.TID 0000.0001) %MON dynstat_theta_min            =   2.0000000000000E+01
(PID.TID 0000.0001) %MON dynstat_theta_mean           =   1.9999999999999E+01
(PID.TID 0000.0001) %MON dynstat_theta_sd             =   1.1972645097557E-12
(PID.TID 0000.0001) %MON dynstat_theta_del2           =   0.0000000000000E+00
(PID.TID 0000.0001) %MON dynstat_salt_max             =   3.0000000000000E+01
(PID.TID 0000.0001) %MON dynstat_salt_min             =   3.0000000000000E+01
(PID.TID 0000.0001) %MON dynstat_salt_mean            =   2.9999999999998E+01
(PID.TID 0000.0001) %MON dynstat_salt_sd              =   2.1529444893531E-12
(PID.TID 0000.0001) %MON dynstat_salt_del2            =   0.0000000000000E+00
(PID.TID 0000.0001) %MON trAdv_CFL_u_max              =   8.0090648361215E-04
(PID.TID 0000.0001) %MON trAdv_CFL_v_max              =   8.6610190305826E-04
(PID.TID 0000.0001) %MON trAdv_CFL_w_max              =   1.0755371367794E-08
(PID.TID 0000.0001) %MON advcfl_uvel_max              =   8.0633733111911E-04
(PID.TID 0000.0001) %MON advcfl_vvel_max              =   8.7290762505271E-04
(PID.TID 0000.0001) %MON advcfl_wvel_max              =   2.0180649567451E-08
(PID.TID 0000.0001) %MON advcfl_W_hf_max              =   0.0000000000000E+00
(PID.TID 0000.0001) %MON pe_b_mean                    =   1.5464911517009E-08
(PID.TID 0000.0001) %MON ke_max                       =   6.6133168250767E-06
(PID.TID 0000.0001) %MON ke_mean                      =   2.0695700656844E-06
(PID.TID 0000.0001) %MON ke_vol                       =   7.2529629296391E+15
(PID.TID 0000.0001) %MON vort_r_min                   =  -2.4331966652616E-07
(PID.TID 0000.0001) %MON vort_r_max                   =   2.8122569512927E-07
(PID.TID 0000.0001) %MON vort_a_mean                  =   1.0615000000000E-04
(PID.TID 0000.0001) %MON vort_a_sd                    =   3.5651573699074E-06
(PID.TID 0000.0001) %MON vort_p_mean                  =   1.1210870169429E-04
(PID.TID 0000.0001) %MON vort_p_sd                    =   2.1049565795989E-05
(PID.TID 0000.0001) %MON surfExpan_theta_mean         =   5.1394926534070E-21
(PID.TID 0000.0001) %MON surfExpan_salt_mean          =   7.6215518352364E-21
(PID.TID 0000.0001) // =======================================================
(PID.TID 0000.0001) // End MONITOR dynamic field statistics
(PID.TID 0000.0001) // =======================================================
 cg2d: Sum(rhs),rhsMax =   6.44354015180704E-06  1.09744663925001E-03
 cg2d: Sum(rhs),rhsMax =   6.48068624549414E-06  1.10359828401161E-03
 cg2d: Sum(rhs),rhsMax =   6.51777467298997E-06  1.10974565840848E-03
 cg2d: Sum(rhs),rhsMax =   6.55482838721189E-06  1.11588883249467E-03
 cg2d: Sum(rhs),rhsMax =   6.59180119254310E-06  1.12202787536524E-03
 cg2d: Sum(rhs),rhsMax =   6.62871461466763E-06  1.12816285403072E-03
 cg2d: Sum(rhs),rhsMax =   6.66556887715664E-06  1.13429383423524E-03
 cg2d: Sum(rhs),rhsMax =   6.70234483512999E-06  1.14042087995849E-03
 cg2d: Sum(rhs),rhsMax =   6.73904812836801E-06  1.14654405379096E-03
 cg2d: Sum(rhs),rhsMax =   6.77567448686967E-06  1.15266341677744E-03
 cg2d: Sum(rhs),rhsMax =   6.81220943155036E-06  1.15877902851369E-03
 cg2d: Sum(rhs),rhsMax =   6.84288951977030E-06  1.16489094733849E-03
 cg2d: Sum(rhs),rhsMax =   6.87350393500930E-06  1.17099922992466E-03
 cg2d: Sum(rhs),rhsMax =   6.90405222743273E-06  1.17710393151883E-03
 cg2d: Sum(rhs),rhsMax =   6.93452102105974E-06  1.18320510643790E-03
 cg2d: Sum(rhs),rhsMax =   6.96491501726848E-06  1.18930280743993E-03
 cg2d: Sum(rhs),rhsMax =   6.99522565748845E-06  1.19539708607469E-03
 cg2d: Sum(rhs),rhsMax =   7.02544592533216E-06  1.20148799261685E-03
 cg2d: Sum(rhs),rhsMax =   7.05559319821858E-06  1.20757557612677E-03
 cg2d: Sum(rhs),rhsMax =   7.08563173626442E-06  1.21365988446804E-03
 cg2d: Sum(rhs),rhsMax =   7.11558958928216E-06  1.21974096433282E-03
 cg2d: Sum(rhs),rhsMax =   7.14543180461991E-06  1.22581886126605E-03
 cg2d: Sum(rhs),rhsMax =   7.17518913487258E-06  1.23189361968886E-03
 cg2d: Sum(rhs),rhsMax =   7.20483467749056E-06  1.23796528292138E-03
 cg2d: Sum(rhs),rhsMax =   7.23436316571457E-06  1.24403389320545E-03
 cg2d: Sum(rhs),rhsMax =   7.26379260373999E-06  1.25009949172598E-03
 cg2d: Sum(rhs),rhsMax =   7.29310271017913E-06  1.25616211863251E-03
 cg2d: Sum(rhs),rhsMax =   7.32230108251020E-06  1.26222181305971E-03
 cg2d: Sum(rhs),rhsMax =   7.34566211817167E-06  1.26827861301609E-03
 cg2d: Sum(rhs),rhsMax =   7.36893037797670E-06  1.27433255623344E-03
 cg2d: Sum(rhs),rhsMax =   7.39209944033981E-06  1.28038367788362E-03
 cg2d: Sum(rhs),rhsMax =   7.41517686576876E-06  1.28643201427794E-03
 cg2d: Sum(rhs),rhsMax =   7.43816539919284E-06  1.29247759905489E-03
 cg2d: Sum(rhs),rhsMax =   7.46102105469992E-06  1.29852046617662E-03
 cg2d: Sum(rhs),rhsMax =   7.48379167558877E-06  1.30456064780207E-03
 cg2d: Sum(rhs),rhsMax =   7.50644228786346E-06  1.31059817595468E-03
 cg2d: Sum(rhs),rhsMax =   7.52900108377808E-06  1.31663308124069E-03
 cg2d: Sum(rhs),rhsMax =   7.55143495062560E-06  1.32266539385668E-03
 cg2d: Sum(rhs),rhsMax =   7.57376488630390E-06  1.32869514289000E-03
 cg2d: Sum(rhs),rhsMax =   7.59597588051442E-06  1.33472235678878E-03
 cg2d: Sum(rhs),rhsMax =   7.61806703682144E-06  1.34074706317590E-03
 cg2d: Sum(rhs),rhsMax =   7.64003540008884E-06  1.34676928881578E-03
 cg2d: Sum(rhs),rhsMax =   7.66190018407220E-06  1.35278905991912E-03
 cg2d: Sum(rhs),rhsMax =   7.68363721853627E-06  1.35880640163452E-03
 cg2d: Sum(rhs),rhsMax =   7.70524602457245E-06  1.36482133880053E-03
 cg2d: Sum(rhs),rhsMax =   7.72672699354826E-06  1.37083389502471E-03
 cg2d: Sum(rhs),rhsMax =   7.74809076722893E-06  1.37684409380451E-03
 cg2d: Sum(rhs),rhsMax =   7.76931838827877E-06  1.38285195728164E-03
 cg2d: Sum(rhs),rhsMax =   7.79043030096904E-06  1.38885750764212E-03
 cg2d: Sum(rhs),rhsMax =   7.81139165877132E-06  1.39486076563098E-03
 cg2d: Sum(rhs),rhsMax =   7.83221873601470E-06  1.40086175215524E-03
 cg2d: Sum(rhs),rhsMax =   7.85293796418118E-06  1.40686048662474E-03
 cg2d: Sum(rhs),rhsMax =   7.87350638885298E-06  1.41285698870285E-03
 cg2d: Sum(rhs),rhsMax =   7.89395100760093E-06  1.41885127651910E-03
 cg2d: Sum(rhs),rhsMax =   7.91424771415250E-06  1.42484336853021E-03
 cg2d: Sum(rhs),rhsMax =   7.93441834461006E-06  1.43083328163536E-03
 cg2d: Sum(rhs),rhsMax =   7.95444434704973E-06  1.43682103312189E-03
 cg2d: Sum(rhs),rhsMax =   7.97431837731843E-06  1.44280663870484E-03
 cg2d: Sum(rhs),rhsMax =   7.99407210252956E-06  1.44879011453934E-03
 cg2d: Sum(rhs),rhsMax =   8.01364057279041E-06  1.45477911153123E-03
 cg2d: Sum(rhs),rhsMax =   8.03302472933420E-06  1.46077448480145E-03
 cg2d: Sum(rhs),rhsMax =   8.05226606043208E-06  1.46676794172404E-03
 cg2d: Sum(rhs),rhsMax =   8.07135072376786E-06  1.47275949526744E-03
 cg2d: Sum(rhs),rhsMax =   8.09030146654843E-06  1.47874915755613E-03
 cg2d: Sum(rhs),rhsMax =   8.10910982161628E-06  1.48473694055497E-03
 cg2d: Sum(rhs),rhsMax =   8.12776854730579E-06  1.49072285535780E-03
 cg2d: Sum(rhs),rhsMax =   8.14129607482061E-06  1.49670691222092E-03
 cg2d: Sum(rhs),rhsMax =   8.15474402054983E-06  1.50268912286003E-03
 cg2d: Sum(rhs),rhsMax =   8.16805807027365E-06  1.50866949626047E-03
 cg2d: Sum(rhs),rhsMax =   8.18126841389821E-06  1.51464804186058E-03
 cg2d: Sum(rhs),rhsMax =   8.19434107821732E-06  1.52062476856014E-03
 cg2d: Sum(rhs),rhsMax =   8.20731147883197E-06  1.52659968483740E-03
(PID.TID 0000.0001)      cg2d_init_res =   9.58733392105481E-02
(PID.TID 0000.0001)      cg2d_iters(min,last) =      -1     412
(PID.TID 0000.0001)      cg2d_last_res =   9.90765994306429E-08
(PID.TID 0000.0001) // =======================================================
(PID.TID 0000.0001) // Begin MONITOR dynamic field statistics
(PID.TID 0000.0001) // =======================================================
(PID.TID 0000.0001) %MON time_tsnumber                =                   216
(PID.TID 0000.0001) %MON time_secondsf                =   2.5920000000000E+05
(PID.TID 0000.0001) %MON dynstat_eta_max              =   1.0536871661809E-02
(PID.TID 0000.0001) %MON dynstat_eta_min              =  -1.0753468450928E-02
(PID.TID 0000.0001) %MON dynstat_eta_mean             =  -5.9951226535587E-11
(PID.TID 0000.0001) %MON dynstat_eta_sd               =   5.7580209605652E-03
(PID.TID 0000.0001) %MON dynstat_eta_del2             =   3.5710788929554E-08
(PID.TID 0000.0001) %MON dynstat_uvel_max             =   4.9115016532535E-03
(PID.TID 0000.0001) %MON dynstat_uvel_min             =  -4.6773173851378E-03
(PID.TID 0000.0001) %MON dynstat_uvel_mean            =  -4.2610875766202E-07
(PID.TID 0000.0001) %MON dynstat_uvel_sd              =   2.6294138785239E-03
(PID.TID 0000.0001) %MON dynstat_uvel_del2            =   2.4714679448544E-07
(PID.TID 0000.0001) %MON dynstat_vvel_max             =   5.7313536700156E-03
(PID.TID 0000.0001) %MON dynstat_vvel_min             =  -4.3207962570367E-03
(PID.TID 0000.0001) %MON dynstat_vvel_mean            =  -1.0814462472464E-06
(PID.TID 0000.0001) %MON dynstat_vvel_sd              =   1.4942939791822E-03
(PID.TID 0000.0001) %MON dynstat_vvel_del2            =   2.5831820067890E-07
(PID.TID 0000.0001) %MON dynstat_wvel_max             =   4.3234374954700E-08
(PID.TID 0000.0001) %MON dynstat_wvel_min             =  -4.2661140821237E-08
(PID.TID 0000.0001) %MON dynstat_wvel_mean            =   2.6953827423626E-23
(PID.TID 0000.0001) %MON dynstat_wvel_sd              =   2.1855287947589E-08
(PID.TID 0000.0001) %MON dynstat_wvel_del2            =   1.4925277754640E-13
(PID.TID 0000.0001) %MON dynstat_theta_max            =   2.0000000000000E+01
(PID.TID 0000.0001) %MON dynstat_theta_min            =   2.0000000000000E+01
(PID.TID 0000.0001) %MON dynstat_theta_mean           =   1.9999999999999E+01
(PID.TID 0000.0001) %MON dynstat_theta_sd             =   1.1972645097557E-12
(PID.TID 0000.0001) %MON dynstat_theta_del2           =   0.0000000000000E+00
(PID.TID 0000.0001) %MON dynstat_salt_max             =   3.0000000000000E+01
(PID.TID 0000.0001) %MON dynstat_salt_min             =   3.0000000000000E+01
(PID.TID 0000.0001) %MON dynstat_salt_mean            =   2.9999999999998E+01
(PID.TID 0000.0001) %MON dynstat_salt_sd              =   2.1529444893531E-12
(PID.TID 0000.0001) %MON dynstat_salt_del2            =   0.0000000000000E+00
(PID.TID 0000.0001) %MON trAdv_CFL_u_max              =   1.1736244236405E-03
(PID.TID 0000.0001) %MON trAdv_CFL_v_max              =   1.3682599571200E-03
(PID.TID 0000.0001) %MON trAdv_CFL_w_max              =   1.1051083036890E-08
(PID.TID 0000.0001) %MON advcfl_uvel_max              =   1.1787603967808E-03
(PID.TID 0000.0001) %MON advcfl_vvel_max              =   1.3755248808037E-03
(PID.TID 0000.0001) %MON advcfl_wvel_max              =   2.0752499978256E-08
(PID.TID 0000.0001) %MON advcfl_W_hf_max              =   0.0000000000000E+00
(PID.TID 0000.0001) %MON pe_b_mean                    =   3.3921907049612E-08
(PID.TID 0000.0001) %MON ke_max                       =   1.6422101935993E-05
(PID.TID 0000.0001) %MON ke_mean                      =   4.5527801324068E-06
(PID.TID 0000.0001) %MON ke_vol                       =   7.2529629296391E+15
(PID.TID 0000.0001) %MON vort_r_min                   =  -3.4033228778795E-07
(PID.TID 0000.0001) %MON vort_r_max                   =   4.2519374604148E-07
(PID.TID 0000.0001) %MON vort_a_mean                  =   1.0615000000000E-04
(PID.TID 0000.0001) %MON vort_a_sd                    =   3.5653688511143E-06
(PID.TID 0000.0001) %MON vort_p_mean                  =   1.1210870169429E-04
(PID.TID 0000.0001) %MON vort_p_sd                    =   2.1049321082286E-05
(PID.TID 0000.0001) %MON surfExpan_theta_mean         =  -7.0288264453117E-22
(PID.TID 0000.0001) %MON surfExpan_salt_mean          =   3.4021325353413E-21
(PID.TID 0000.0001) // =======================================================
(PID.TID 0000.0001) // End MONITOR dynamic field statistics
(PID.TID 0000.0001) // =======================================================
 cg2d: Sum(rhs),rhsMax =   8.22016915555390E-06  1.53257279869427E-03
 cg2d: Sum(rhs),rhsMax =   8.23290987981423E-06  1.53854411770350E-03
 cg2d: Sum(rhs),rhsMax =   8.24552554992003E-06  1.54451364900485E-03
 cg2d: Sum(rhs),rhsMax =   8.25803030619215E-06  1.55048139931513E-03
 cg2d: Sum(rhs),rhsMax =   8.27042758010099E-06  1.55644737493504E-03
 cg2d: Sum(rhs),rhsMax =   8.28269803459375E-06  1.56241158175481E-03
 cg2d: Sum(rhs),rhsMax =   8.29486248847544E-06  1.56837402526087E-03
 cg2d: Sum(rhs),rhsMax =   8.30689057553652E-06  1.57433471054220E-03
 cg2d: Sum(rhs),rhsMax =   8.31881126567985E-06  1.58029364229656E-03
 cg2d: Sum(rhs),rhsMax =   8.33061447613054E-06  1.58625082483687E-03
 cg2d: Sum(rhs),rhsMax =   8.34230064996472E-06  1.59220626209701E-03
 cg2d: Sum(rhs),rhsMax =   8.35387348656347E-06  1.59815995763795E-03
 cg2d: Sum(rhs),rhsMax =   8.36532655807548E-06  1.60411191465347E-03
 cg2d: Sum(rhs),rhsMax =   8.37665240687596E-06  1.61006213597584E-03
 cg2d: Sum(rhs),rhsMax =   8.38786503894878E-06  1.61601062408151E-03
 cg2d: Sum(rhs),rhsMax =   8.39896259969414E-06  1.62195738109642E-03
 cg2d: Sum(rhs),rhsMax =   8.40993840935805E-06  1.62790240880146E-03
 cg2d: Sum(rhs),rhsMax =   8.42079207642732E-06  1.63384570863788E-03
 cg2d: Sum(rhs),rhsMax =   8.43153460060309E-06  1.63978728171230E-03
 cg2d: Sum(rhs),rhsMax =   8.44216333142911E-06  1.64572712880185E-03
 cg2d: Sum(rhs),rhsMax =   8.45266581581822E-06  1.65166525035921E-03
 cg2d: Sum(rhs),rhsMax =   8.46306089426208E-06  1.65760164651740E-03
 cg2d: Sum(rhs),rhsMax =   8.47332582493143E-06  1.66353631709465E-03
 cg2d: Sum(rhs),rhsMax =   8.48347504465302E-06  1.66946926159927E-03
 cg2d: Sum(rhs),rhsMax =   8.49351906050816E-06  1.67540047923399E-03
 cg2d: Sum(rhs),rhsMax =   8.50345895432592E-06  1.68132996890078E-03
 cg2d: Sum(rhs),rhsMax =   8.51326126517782E-06  1.68725772920514E-03
 cg2d: Sum(rhs),rhsMax =   8.52294703621026E-06  1.69318375846061E-03
 cg2d: Sum(rhs),rhsMax =   8.53250602080025E-06  1.69910805469301E-03
 cg2d: Sum(rhs),rhsMax =   8.54196571536264E-06  1.70503061564479E-03
 cg2d: Sum(rhs),rhsMax =   8.55130647937907E-06  1.71095143877897E-03
 cg2d: Sum(rhs),rhsMax =   8.56053921702293E-06  1.71687052128356E-03
 cg2d: Sum(rhs),rhsMax =   8.56965148341576E-06  1.72278786007517E-03
 cg2d: Sum(rhs),rhsMax =   8.57865837621680E-06  1.72870345180338E-03
 cg2d: Sum(rhs),rhsMax =   8.58748713818136E-06  1.73462785866203E-03
 cg2d: Sum(rhs),rhsMax =   8.59615013588944E-06  1.74056096711362E-03
 cg2d: Sum(rhs),rhsMax =   8.60470905661437E-06  1.74649246476650E-03
 cg2d: Sum(rhs),rhsMax =   8.61313983436390E-06  1.75242234672486E-03
 cg2d: Sum(rhs),rhsMax =   8.62145659522029E-06  1.75835060784661E-03
 cg2d: Sum(rhs),rhsMax =   8.62967345163779E-06  1.76427724274709E-03
 cg2d: Sum(rhs),rhsMax =   8.63777737658555E-06  1.77020224580239E-03
 cg2d: Sum(rhs),rhsMax =   8.64577495869601E-06  1.77612561115280E-03
 cg2d: Sum(rhs),rhsMax =   8.65364091814230E-06  1.78204733270627E-03
 cg2d: Sum(rhs),rhsMax =   8.66140194043935E-06  1.78796740414146E-03
 cg2d: Sum(rhs),rhsMax =   8.66907040314446E-06  1.79388581891126E-03
 cg2d: Sum(rhs),rhsMax =   8.67661230777306E-06  1.79980257024571E-03
 cg2d: Sum(rhs),rhsMax =   8.68405738052580E-06  1.80571765115538E-03
 cg2d: Sum(rhs),rhsMax =   8.69137201020553E-06  1.81163105443423E-03
 cg2d: Sum(rhs),rhsMax =   8.69860726370603E-06  1.81754277266285E-03
 cg2d: Sum(rhs),rhsMax =   8.70571754806732E-06  1.82345279821121E-03
 cg2d: Sum(rhs),rhsMax =   8.71271547355640E-06  1.82936112324182E-03
 cg2d: Sum(rhs),rhsMax =   8.71960530334642E-06  1.83526773971245E-03
 cg2d: Sum(rhs),rhsMax =   8.72638708368512E-06  1.84117263937911E-03
 cg2d: Sum(rhs),rhsMax =   8.73306145836306E-06  1.84707581379869E-03
 cg2d: Sum(rhs),rhsMax =   8.73964488518064E-06  1.85297725433191E-03
 cg2d: Sum(rhs),rhsMax =   8.74612279973958E-06  1.85887695214578E-03
 cg2d: Sum(rhs),rhsMax =   8.75248889974783E-06  1.86477489821653E-03
 cg2d: Sum(rhs),rhsMax =   8.75873115856185E-06  1.87067108333199E-03
 cg2d: Sum(rhs),rhsMax =   8.76489624528770E-06  1.87656549809438E-03
 cg2d: Sum(rhs),rhsMax =   8.77094580655630E-06  1.88245813292273E-03
 cg2d: Sum(rhs),rhsMax =   8.77688815868055E-06  1.88834897805542E-03
 cg2d: Sum(rhs),rhsMax =   8.78273808372493E-06  1.89423802355256E-03
 cg2d: Sum(rhs),rhsMax =   8.78848922197806E-06  1.90012525929870E-03
 cg2d: Sum(rhs),rhsMax =   8.79412293858933E-06  1.90601067500484E-03
 cg2d: Sum(rhs),rhsMax =   8.79966313117181E-06  1.91189426021101E-03
 cg2d: Sum(rhs),rhsMax =   8.80510509341376E-06  1.91777600428868E-03
 cg2d: Sum(rhs),rhsMax =   8.81044900889749E-06  1.92365589644265E-03
 cg2d: Sum(rhs),rhsMax =   8.81569786893160E-06  1.92953392571377E-03
 cg2d: Sum(rhs),rhsMax =   8.82083646307902E-06  1.93541008098096E-03
 cg2d: Sum(rhs),rhsMax =   8.82588037352805E-06  1.94128435096328E-03
 cg2d: Sum(rhs),rhsMax =   8.83083003004603E-06  1.94715672422225E-03
 cg2d: Sum(rhs),rhsMax =   8.83568564018222E-06  1.95302718916382E-03
(PID.TID 0000.0001)      cg2d_init_res =   7.17150775254155E-02
(PID.TID 0000.0001)      cg2d_iters(min,last) =      -1     412
(PID.TID 0000.0001)      cg2d_last_res =   9.77867201445444E-08
(PID.TID 0000.0001) // =======================================================
(PID.TID 0000.0001) // Begin MONITOR dynamic field statistics
(PID.TID 0000.0001) // =======================================================
(PID.TID 0000.0001) %MON time_tsnumber                =                   288
(PID.TID 0000.0001) %MON time_secondsf                =   3.4560000000000E+05
(PID.TID 0000.0001) %MON dynstat_eta_max              =   1.4139149883884E-02
(PID.TID 0000.0001) %MON dynstat_eta_min              =  -1.4378844970770E-02
(PID.TID 0000.0001) %MON dynstat_eta_mean             =  -8.2410232707915E-11
(PID.TID 0000.0001) %MON dynstat_eta_sd               =   7.5665255759032E-03
(PID.TID 0000.0001) %MON dynstat_eta_del2             =   4.7712550613971E-08
(PID.TID 0000.0001) %MON dynstat_uvel_max             =   6.3286445487375E-03
(PID.TID 0000.0001) %MON dynstat_uvel_min             =  -6.1821807488243E-03
(PID.TID 0000.0001) %MON dynstat_uvel_mean            =  -5.3595191371073E-07
(PID.TID 0000.0001) %MON dynstat_uvel_sd              =   3.4200895589577E-03
(PID.TID 0000.0001) %MON dynstat_uvel_del2            =   2.7750619723534E-07
(PID.TID 0000.0001) %MON dynstat_vvel_max             =   7.9970270022101E-03
(PID.TID 0000.0001) %MON dynstat_vvel_min             =  -5.5249095707373E-03
(PID.TID 0000.0001) %MON dynstat_vvel_mean            =  -9.8332587948610E-07
(PID.TID 0000.0001) %MON dynstat_vvel_sd              =   2.0418302955023E-03
(PID.TID 0000.0001) %MON dynstat_vvel_del2            =   3.0598997622848E-07
(PID.TID 0000.0001) %MON dynstat_wvel_max             =   4.4321516374621E-08
(PID.TID 0000.0001) %MON dynstat_wvel_min             =  -4.3224682866748E-08
(PID.TID 0000.0001) %MON dynstat_wvel_mean            =  -6.4591187371833E-22
(PID.TID 0000.0001) %MON dynstat_wvel_sd              =   2.1462308338647E-08
(PID.TID 0000.0001) %MON dynstat_wvel_del2            =   1.4583770903006E-13
(PID.TID 0000.0001) %MON dynstat_theta_max            =   2.0000000000000E+01
(PID.TID 0000.0001) %MON dynstat_theta_min            =   2.0000000000000E+01
(PID.TID 0000.0001) %MON dynstat_theta_mean           =   1.9999999999999E+01
(PID.TID 0000.0001) %MON dynstat_theta_sd             =   1.1972645097557E-12
(PID.TID 0000.0001) %MON dynstat_theta_del2           =   0.0000000000000E+00
(PID.TID 0000.0001) %MON dynstat_salt_max             =   3.0000000000000E+01
(PID.TID 0000.0001) %MON dynstat_salt_min             =   3.0000000000000E+01
(PID.TID 0000.0001) %MON dynstat_salt_mean            =   2.9999999999998E+01
(PID.TID 0000.0001) %MON dynstat_salt_sd              =   2.1529444893531E-12
(PID.TID 0000.0001) %MON dynstat_salt_del2            =   0.0000000000000E+00
(PID.TID 0000.0001) %MON trAdv_CFL_u_max              =   1.5140865073249E-03
(PID.TID 0000.0001) %MON trAdv_CFL_v_max              =   1.9113425645873E-03
(PID.TID 0000.0001) %MON trAdv_CFL_w_max              =   1.1295624559643E-08
(PID.TID 0000.0001) %MON advcfl_uvel_max              =   1.5188746916970E-03
(PID.TID 0000.0001) %MON advcfl_vvel_max              =   1.9192864805304E-03
(PID.TID 0000.0001) %MON advcfl_wvel_max              =   2.1274327859818E-08
(PID.TID 0000.0001) %MON advcfl_W_hf_max              =   0.0000000000000E+00
(PID.TID 0000.0001) %MON pe_b_mean                    =   5.8576954132097E-08
(PID.TID 0000.0001) %MON ke_max                       =   3.1971959437531E-05
(PID.TID 0000.0001) %MON ke_mean                      =   7.8973327576201E-06
(PID.TID 0000.0001) %MON ke_vol                       =   7.2529629296391E+15
(PID.TID 0000.0001) %MON vort_r_min                   =  -4.2197687145995E-07
(PID.TID 0000.0001) %MON vort_r_max                   =   5.6793974186998E-07
(PID.TID 0000.0001) %MON vort_a_mean                  =   1.0615000000000E-04
(PID.TID 0000.0001) %MON vort_a_sd                    =   3.5656127019065E-06
(PID.TID 0000.0001) %MON vort_p_mean                  =   1.1210870169429E-04
(PID.TID 0000.0001) %MON vort_p_sd                    =   2.1049195341543E-05
(PID.TID 0000.0001) %MON surfExpan_theta_mean         =  -1.2457525115100E-20
(PID.TID 0000.0001) %MON surfExpan_salt_mean          =  -1.8090233007943E-20
(PID.TID 0000.0001) // =======================================================
(PID.TID 0000.0001) // End MONITOR dynamic field statistics
(PID.TID 0000.0001) // =======================================================
 cg2d: Sum(rhs),rhsMax =   8.84043559085113E-06  1.95889573404077E-03
 cg2d: Sum(rhs),rhsMax =   8.84508916502297E-06  1.96476234695430E-03
 cg2d: Sum(rhs),rhsMax =   8.85339337289293E-06  1.97062701652252E-03
 cg2d: Sum(rhs),rhsMax =   8.86158013773536E-06  1.97648972947085E-03
 cg2d: Sum(rhs),rhsMax =   8.86964490053738E-06  1.98235047332988E-03
 cg2d: Sum(rhs),rhsMax =   8.87752552859722E-06  1.98822004699131E-03
 cg2d: Sum(rhs),rhsMax =   8.88523674273667E-06  1.99410149745928E-03
 cg2d: Sum(rhs),rhsMax =   8.89282950859716E-06  1.99998107309602E-03
 cg2d: Sum(rhs),rhsMax =   8.90029436571155E-06  2.00585876104559E-03
 cg2d: Sum(rhs),rhsMax =   8.90765268123789E-06  2.01173454753186E-03
 cg2d: Sum(rhs),rhsMax =   8.91487662588869E-06  2.01760841904499E-03
 cg2d: Sum(rhs),rhsMax =   8.92199706506447E-06  2.02348036191193E-03
 cg2d: Sum(rhs),rhsMax =   8.92899190427926E-06  2.02935036203115E-03
 cg2d: Sum(rhs),rhsMax =   8.93587538535606E-06  2.03521840575670E-03
 cg2d: Sum(rhs),rhsMax =   8.94264195892142E-06  2.04108447849760E-03
 cg2d: Sum(rhs),rhsMax =   8.94929266766209E-06  2.04694856655188E-03
 cg2d: Sum(rhs),rhsMax =   8.95583909558267E-06  2.05281065492297E-03
 cg2d: Sum(rhs),rhsMax =   8.96227151604007E-06  2.05867072979579E-03
 cg2d: Sum(rhs),rhsMax =   8.96858871655970E-06  2.06452877582538E-03
 cg2d: Sum(rhs),rhsMax =   8.97479610448976E-06  2.07038477904979E-03
 cg2d: Sum(rhs),rhsMax =   8.98088373164213E-06  2.07623872381326E-03
 cg2d: Sum(rhs),rhsMax =   8.98687202733478E-06  2.08209059598985E-03
 cg2d: Sum(rhs),rhsMax =   8.99274192544403E-06  2.08794037963704E-03
 cg2d: Sum(rhs),rhsMax =   8.99851305124350E-06  2.09378806045707E-03
 cg2d: Sum(rhs),rhsMax =   9.00417703958434E-06  2.09963362223759E-03
 cg2d: Sum(rhs),rhsMax =   9.00971874456813E-06  2.10547705050655E-03
 cg2d: Sum(rhs),rhsMax =   9.01516886472886E-06  2.11131832879408E-03
 cg2d: Sum(rhs),rhsMax =   9.02050581615133E-06  2.11715744245471E-03
 cg2d: Sum(rhs),rhsMax =   9.02573497488235E-06  2.12299437477048E-03
 cg2d: Sum(rhs),rhsMax =   9.03087476684244E-06  2.12882911092531E-03
 cg2d: Sum(rhs),rhsMax =   9.03590716386238E-06  2.13466163396103E-03
 cg2d: Sum(rhs),rhsMax =   9.04082342090967E-06  2.14049192889446E-03
 cg2d: Sum(rhs),rhsMax =   9.04565145165570E-06  2.14631997853401E-03
 cg2d: Sum(rhs),rhsMax =   9.05037899386063E-06  2.15214576773424E-03
 cg2d: Sum(rhs),rhsMax =   9.05498776437169E-06  2.15796927907572E-03
 cg2d: Sum(rhs),rhsMax =   9.05951205711075E-06  2.16379049725516E-03
 cg2d: Sum(rhs),rhsMax =   9.06393727497651E-06  2.16960940463149E-03
 cg2d: Sum(rhs),rhsMax =   9.06826413423628E-06  2.17542598574805E-03
 cg2d: Sum(rhs),rhsMax =   9.07248162360097E-06  2.18124022274749E-03
 cg2d: Sum(rhs),rhsMax =   9.07661300376256E-06  2.18705210002434E-03
 cg2d: Sum(rhs),rhsMax =   9.08064716158979E-06  2.19286159951045E-03
 cg2d: Sum(rhs),rhsMax =   9.08458068223095E-06  2.19866870545566E-03
 cg2d: Sum(rhs),rhsMax =   9.08842003819604E-06  2.20447339958641E-03
 cg2d: Sum(rhs),rhsMax =   9.09217314816468E-06  2.21027566601245E-03
 cg2d: Sum(rhs),rhsMax =   9.09581125633357E-06  2.21607548625969E-03
 cg2d: Sum(rhs),rhsMax =   9.09936968981895E-06  2.22187284430176E-03
 cg2d: Sum(rhs),rhsMax =   9.10280347771186E-06  2.22767191514852E-03
 cg2d: Sum(rhs),rhsMax =   9.10606492664917E-06  2.23349193074422E-03
 cg2d: Sum(rhs),rhsMax =   9.10922424776639E-06  2.23930955004835E-03
 cg2d: Sum(rhs),rhsMax =   9.11230749511827E-06  2.24512475488044E-03
 cg2d: Sum(rhs),rhsMax =   9.11529839136421E-06  2.25093752726797E-03
 cg2d: Sum(rhs),rhsMax =   9.11819120218149E-06  2.25674784893340E-03
 cg2d: Sum(rhs),rhsMax =   9.12099387457427E-06  2.26255570169847E-03
 cg2d: Sum(rhs),rhsMax =   9.12708345884167E-06  2.26836106626992E-03
 cg2d: Sum(rhs),rhsMax =   9.13304897572770E-06  2.27416392603962E-03
 cg2d: Sum(rhs),rhsMax =   9.13889673571228E-06  2.27996426159729E-03
 cg2d: Sum(rhs),rhsMax =   9.14463190078429E-06  2.28576205472392E-03
 cg2d: Sum(rhs),rhsMax =   9.15025650673196E-06  2.29155728652816E-03
 cg2d: Sum(rhs),rhsMax =   9.15577963069708E-06  2.29734993836203E-03
 cg2d: Sum(rhs),rhsMax =   9.16119271874433E-06  2.30313999154283E-03
 cg2d: Sum(rhs),rhsMax =   9.16650218108633E-06  2.30892742719035E-03
 cg2d: Sum(rhs),rhsMax =   9.17169493819953E-06  2.31471222648382E-03
 cg2d: Sum(rhs),rhsMax =   9.17677876693251E-06  2.32049437044607E-03
 cg2d: Sum(rhs),rhsMax =   9.18176492744477E-06  2.32627384008844E-03
 cg2d: Sum(rhs),rhsMax =   9.18664129774538E-06  2.33205061633534E-03
 cg2d: Sum(rhs),rhsMax =   9.19143052990901E-06  2.33782468005683E-03
 cg2d: Sum(rhs),rhsMax =   9.19609027189711E-06  2.34359601206301E-03
 cg2d: Sum(rhs),rhsMax =   9.20065489679739E-06  2.34936459310100E-03
 cg2d: Sum(rhs),rhsMax =   9.20512853128108E-06  2.35513040386100E-03
 cg2d: Sum(rhs),rhsMax =   9.20948635765861E-06  2.36089342497347E-03
 cg2d: Sum(rhs),rhsMax =   9.21375969829830E-06  2.36665363701154E-03
 cg2d: Sum(rhs),rhsMax =   9.21792185844261E-06  2.37241102049144E-03
(PID.TID 0000.0001)      cg2d_init_res =   5.72274928637779E-02
(PID.TID 0000.0001)      cg2d_iters(min,last) =      -1     410
(PID.TID 0000.0001)      cg2d_last_res =   9.77049803426881E-08
(PID.TID 0000.0001) // =======================================================
(PID.TID 0000.0001) // Begin MONITOR dynamic field statistics
(PID.TID 0000.0001) // =======================================================
(PID.TID 0000.0001) %MON time_tsnumber                =                   360
(PID.TID 0000.0001) %MON time_secondsf                =   4.3200000000000E+05
(PID.TID 0000.0001) %MON dynstat_eta_max              =   1.7741362389064E-02
(PID.TID 0000.0001) %MON dynstat_eta_min              =  -1.8001846174434E-02
(PID.TID 0000.0001) %MON dynstat_eta_mean             =  -1.0436689443400E-10
(PID.TID 0000.0001) %MON dynstat_eta_sd               =   9.3037014835825E-03
(PID.TID 0000.0001) %MON dynstat_eta_del2             =   5.9214048422225E-08
(PID.TID 0000.0001) %MON dynstat_uvel_max             =   7.5819822870479E-03
(PID.TID 0000.0001) %MON dynstat_uvel_min             =  -7.6468590316962E-03
(PID.TID 0000.0001) %MON dynstat_uvel_mean            =  -6.2304320699642E-07
(PID.TID 0000.0001) %MON dynstat_uvel_sd              =   4.1515324902380E-03
(PID.TID 0000.0001) %MON dynstat_uvel_del2            =   2.9708852287090E-07
(PID.TID 0000.0001) %MON dynstat_vvel_max             =   1.0386194241767E-02
(PID.TID 0000.0001) %MON dynstat_vvel_min             =  -6.6173526094996E-03
(PID.TID 0000.0001) %MON dynstat_vvel_mean            =  -8.7121636639822E-07
(PID.TID 0000.0001) %MON dynstat_vvel_sd              =   2.6250108415830E-03
(PID.TID 0000.0001) %MON dynstat_vvel_del2            =   3.4932685734568E-07
(PID.TID 0000.0001) %MON dynstat_wvel_max             =   4.5052248670254E-08
(PID.TID 0000.0001) %MON dynstat_wvel_min             =  -4.3700478043120E-08
(PID.TID 0000.0001) %MON dynstat_wvel_mean            =  -5.7729726828066E-22
(PID.TID 0000.0001) %MON dynstat_wvel_sd              =   2.1056952999737E-08
(PID.TID 0000.0001) %MON dynstat_wvel_del2            =   1.4303947870474E-13
(PID.TID 0000.0001) %MON dynstat_theta_max            =   2.0000000000000E+01
(PID.TID 0000.0001) %MON dynstat_theta_min            =   2.0000000000000E+01
(PID.TID 0000.0001) %MON dynstat_theta_mean           =   1.9999999999999E+01
(PID.TID 0000.0001) %MON dynstat_theta_sd             =   1.1972645097557E-12
(PID.TID 0000.0001) %MON dynstat_theta_del2           =   0.0000000000000E+00
(PID.TID 0000.0001) %MON dynstat_salt_max             =   3.0000000000000E+01
(PID.TID 0000.0001) %MON dynstat_salt_min             =   3.0000000000000E+01
(PID.TID 0000.0001) %MON dynstat_salt_mean            =   2.9999999999998E+01
(PID.TID 0000.0001) %MON dynstat_salt_sd              =   2.1529444893531E-12
(PID.TID 0000.0001) %MON dynstat_salt_del2            =   0.0000000000000E+00
(PID.TID 0000.0001) %MON trAdv_CFL_u_max              =   1.8304104031712E-03
(PID.TID 0000.0001) %MON trAdv_CFL_v_max              =   2.4844278434031E-03
(PID.TID 0000.0001) %MON trAdv_CFL_w_max              =   1.1452200038213E-08
(PID.TID 0000.0001) %MON advcfl_uvel_max              =   1.8352461676071E-03
(PID.TID 0000.0001) %MON advcfl_vvel_max              =   2.4926866180242E-03
(PID.TID 0000.0001) %MON advcfl_wvel_max              =   2.1625079361722E-08
(PID.TID 0000.0001) %MON advcfl_W_hf_max              =   0.0000000000000E+00
(PID.TID 0000.0001) %MON pe_b_mean                    =   8.8561570889418E-08
(PID.TID 0000.0001) %MON ke_max                       =   5.3931631125252E-05
(PID.TID 0000.0001) %MON ke_mean                      =   1.2008652601370E-05
(PID.TID 0000.0001) %MON ke_vol                       =   7.2529629296391E+15
(PID.TID 0000.0001) %MON vort_r_min                   =  -4.9159071684936E-07
(PID.TID 0000.0001) %MON vort_r_max                   =   7.0999919789546E-07
(PID.TID 0000.0001) %MON vort_a_mean                  =   1.0615000000000E-04
(PID.TID 0000.0001) %MON vort_a_sd                    =   3.5658821417373E-06
(PID.TID 0000.0001) %MON vort_p_mean                  =   1.1210870169429E-04
(PID.TID 0000.0001) %MON vort_p_sd                    =   2.1049169758739E-05
(PID.TID 0000.0001) %MON surfExpan_theta_mean         =  -1.1560190749446E-20
(PID.TID 0000.0001) %MON surfExpan_salt_mean          =  -1.2877576150865E-20
(PID.TID 0000.0001) // =======================================================
(PID.TID 0000.0001) // End MONITOR dynamic field statistics
(PID.TID 0000.0001) // =======================================================
 cg2d: Sum(rhs),rhsMax =   9.22199338997121E-06  2.37816555587357E-03
 cg2d: Sum(rhs),rhsMax =   9.22594925168579E-06  2.38391722356348E-03
 cg2d: Sum(rhs),rhsMax =   9.22982656632876E-06  2.38966600391216E-03
 cg2d: Sum(rhs),rhsMax =   9.23359065595902E-06  2.39541187721740E-03
 cg2d: Sum(rhs),rhsMax =   9.23727470544117E-06  2.40115482372435E-03
 cg2d: Sum(rhs),rhsMax =   9.24086426329351E-06  2.40689482362629E-03
 cg2d: Sum(rhs),rhsMax =   9.24435821632319E-06  2.41263185706568E-03
 cg2d: Sum(rhs),rhsMax =   9.24775015832130E-06  2.41836590413444E-03
 cg2d: Sum(rhs),rhsMax =   9.25104464524762E-06  2.42409694487515E-03
 cg2d: Sum(rhs),rhsMax =   9.25425195443669E-06  2.42982495928187E-03
 cg2d: Sum(rhs),rhsMax =   9.25737923721665E-06  2.43554992730060E-03
 cg2d: Sum(rhs),rhsMax =   9.26039879237811E-06  2.44127182883009E-03
 cg2d: Sum(rhs),rhsMax =   9.26333080873004E-06  2.44699064372274E-03
 cg2d: Sum(rhs),rhsMax =   9.26618175763061E-06  2.45270635178540E-03
 cg2d: Sum(rhs),rhsMax =   9.26894361764907E-06  2.45841893277964E-03
 cg2d: Sum(rhs),rhsMax =   9.27151062898868E-06  2.46415127953625E-03
 cg2d: Sum(rhs),rhsMax =   9.27397719155398E-06  2.46988778357435E-03
 cg2d: Sum(rhs),rhsMax =   9.27636574719892E-06  2.47562120663986E-03
 cg2d: Sum(rhs),rhsMax =   9.27865768133446E-06  2.48135152794217E-03
 cg2d: Sum(rhs),rhsMax =   9.28085926075323E-06  2.48707872665012E-03
 cg2d: Sum(rhs),rhsMax =   9.28298459686866E-06  2.49280278189167E-03
 cg2d: Sum(rhs),rhsMax =   9.28502675359016E-06  2.49852367275569E-03
 cg2d: Sum(rhs),rhsMax =   9.28698185532345E-06  2.50424137829200E-03
 cg2d: Sum(rhs),rhsMax =   9.28885277668573E-06  2.50995587751195E-03
 cg2d: Sum(rhs),rhsMax =   9.29064399616403E-06  2.51566714938968E-03
 cg2d: Sum(rhs),rhsMax =   9.29235555425373E-06  2.52137517286231E-03
 cg2d: Sum(rhs),rhsMax =   9.29398888255273E-06  2.52707992683054E-03
 cg2d: Sum(rhs),rhsMax =   9.29552535497424E-06  2.53278139015964E-03
 cg2d: Sum(rhs),rhsMax =   9.29698977251980E-06  2.53847954167973E-03
 cg2d: Sum(rhs),rhsMax =   9.29837859566657E-06  2.54417436018668E-03
 cg2d: Sum(rhs),rhsMax =   9.29969526424629E-06  2.54986582444256E-03
 cg2d: Sum(rhs),rhsMax =   9.30092354872736E-06  2.55555391317670E-03
 cg2d: Sum(rhs),rhsMax =   9.30206806565997E-06  2.56123860508531E-03
 cg2d: Sum(rhs),rhsMax =   9.30580673665776E-06  2.56691987884306E-03
 cg2d: Sum(rhs),rhsMax =   9.30943644653764E-06  2.57259771231076E-03
 cg2d: Sum(rhs),rhsMax =   9.31297391521674E-06  2.57827208637123E-03
 cg2d: Sum(rhs),rhsMax =   9.31641147365603E-06  2.58394297654217E-03
 cg2d: Sum(rhs),rhsMax =   9.31976852840827E-06  2.58961036448179E-03
 cg2d: Sum(rhs),rhsMax =   9.32592250590947E-06  2.59527422732340E-03
 cg2d: Sum(rhs),rhsMax =   9.33196339302639E-06  2.60093454225169E-03
 cg2d: Sum(rhs),rhsMax =   9.33790319623123E-06  2.60659128848834E-03
 cg2d: Sum(rhs),rhsMax =   9.34371517673921E-06  2.61224444512119E-03
 cg2d: Sum(rhs),rhsMax =   9.34942026182412E-06  2.61789399028772E-03
 cg2d: Sum(rhs),rhsMax =   9.35500936134759E-06  2.62353990231389E-03
 cg2d: Sum(rhs),rhsMax =   9.36048878950185E-06  2.62918215972441E-03
 cg2d: Sum(rhs),rhsMax =   9.36586324580546E-06  2.63482074053535E-03
 cg2d: Sum(rhs),rhsMax =   9.37112130593165E-06  2.64045562330514E-03
 cg2d: Sum(rhs),rhsMax =   9.37627982383615E-06  2.64608678610765E-03
 cg2d: Sum(rhs),rhsMax =   9.38133887140591E-06  2.65171420734629E-03
 cg2d: Sum(rhs),rhsMax =   9.38627953651905E-06  2.65733786517518E-03
 cg2d: Sum(rhs),rhsMax =   9.39111848545504E-06  2.66295773785892E-03
 cg2d: Sum(rhs),rhsMax =   9.39585145855182E-06  2.66857380356053E-03
 cg2d: Sum(rhs),rhsMax =   9.40047326162402E-06  2.67418604046516E-03
 cg2d: Sum(rhs),rhsMax =   9.40499283201557E-06  2.67979442670721E-03
 cg2d: Sum(rhs),rhsMax =   9.40940867484585E-06  2.68539894042616E-03
 cg2d: Sum(rhs),rhsMax =   9.41362889171626E-06  2.69102745071108E-03
 cg2d: Sum(rhs),rhsMax =   9.41774162649400E-06  2.69665658750646E-03
 cg2d: Sum(rhs),rhsMax =   9.42174411144858E-06  2.70228188254871E-03
 cg2d: Sum(rhs),rhsMax =   9.42564581843386E-06  2.70790331353395E-03
 cg2d: Sum(rhs),rhsMax =   9.42945115869204E-06  2.71352085812883E-03
 cg2d: Sum(rhs),rhsMax =   9.43316340370343E-06  2.71913449399321E-03
 cg2d: Sum(rhs),rhsMax =   9.43677849664371E-06  2.72474419876208E-03
 cg2d: Sum(rhs),rhsMax =   9.44030471980439E-06  2.73034995006144E-03
 cg2d: Sum(rhs),rhsMax =   9.44372771774504E-06  2.73595172549678E-03
 cg2d: Sum(rhs),rhsMax =   9.44705735945323E-06  2.74154950266288E-03
 cg2d: Sum(rhs),rhsMax =   9.45029797875391E-06  2.74714325913644E-03
 cg2d: Sum(rhs),rhsMax =   9.45343728873949E-06  2.75273297248332E-03
 cg2d: Sum(rhs),rhsMax =   9.45650104319101E-06  2.75831862025342E-03
 cg2d: Sum(rhs),rhsMax =   9.45946319918373E-06  2.76390017998582E-03
 cg2d: Sum(rhs),rhsMax =   9.46232016741516E-06  2.76947762920503E-03
 cg2d: Sum(rhs),rhsMax =   9.46511307882425E-06  2.77505094542533E-03
 cg2d: Sum(rhs),rhsMax =   9.46779027771044E-06  2.78062010614774E-03
(PID.TID 0000.0001)      cg2d_init_res =   4.76096454264527E-02
(PID.TID 0000.0001)      cg2d_iters(min,last) =      -1     408
(PID.TID 0000.0001)      cg2d_last_res =   9.46592990559174E-08
(PID.TID 0000.0001) // =======================================================
(PID.TID 0000.0001) // Begin MONITOR dynamic field statistics
(PID.TID 0000.0001) // =======================================================
(PID.TID 0000.0001) %MON time_tsnumber                =                   432
(PID.TID 0000.0001) %MON time_secondsf                =   5.1840000000000E+05
(PID.TID 0000.0001) %MON dynstat_eta_max              =   2.1295021089896E-02
(PID.TID 0000.0001) %MON dynstat_eta_min              =  -2.1596531610312E-02
(PID.TID 0000.0001) %MON dynstat_eta_mean             =  -1.2556646325629E-10
(PID.TID 0000.0001) %MON dynstat_eta_sd               =   1.0960576664410E-02
(PID.TID 0000.0001) %MON dynstat_eta_del2             =   7.0233779628383E-08
(PID.TID 0000.0001) %MON dynstat_uvel_max             =   8.6720372425493E-03
(PID.TID 0000.0001) %MON dynstat_uvel_min             =  -9.0619171852697E-03
(PID.TID 0000.0001) %MON dynstat_uvel_mean            =  -6.8492020788195E-07
(PID.TID 0000.0001) %MON dynstat_uvel_sd              =   4.8169189534396E-03
(PID.TID 0000.0001) %MON dynstat_uvel_del2            =   3.0869052977876E-07
(PID.TID 0000.0001) %MON dynstat_vvel_max             =   1.2852893176545E-02
(PID.TID 0000.0001) %MON dynstat_vvel_min             =  -7.5871288930885E-03
(PID.TID 0000.0001) %MON dynstat_vvel_mean            =  -7.4871154023829E-07
(PID.TID 0000.0001) %MON dynstat_vvel_sd              =   3.2420707772307E-03
(PID.TID 0000.0001) %MON dynstat_vvel_del2            =   3.8982087807551E-07
(PID.TID 0000.0001) %MON dynstat_wvel_max             =   4.5371608171263E-08
(PID.TID 0000.0001) %MON dynstat_wvel_min             =  -4.4103600316703E-08
(PID.TID 0000.0001) %MON dynstat_wvel_mean            =   6.0581415634062E-22
(PID.TID 0000.0001) %MON dynstat_wvel_sd              =   2.0642961722551E-08
(PID.TID 0000.0001) %MON dynstat_wvel_del2            =   1.4067438116261E-13
(PID.TID 0000.0001) %MON dynstat_theta_max            =   2.0000000000000E+01
(PID.TID 0000.0001) %MON dynstat_theta_min            =   2.0000000000000E+01
(PID.TID 0000.0001) %MON dynstat_theta_mean           =   1.9999999999999E+01
(PID.TID 0000.0001) %MON dynstat_theta_sd             =   1.1972645097557E-12
(PID.TID 0000.0001) %MON dynstat_theta_del2           =   0.0000000000000E+00
(PID.TID 0000.0001) %MON dynstat_salt_max             =   3.0000000000000E+01
(PID.TID 0000.0001) %MON dynstat_salt_min             =   3.0000000000000E+01
(PID.TID 0000.0001) %MON dynstat_salt_mean            =   2.9999999999998E+01
(PID.TID 0000.0001) %MON dynstat_salt_sd              =   2.1529444893531E-12
(PID.TID 0000.0001) %MON dynstat_salt_del2            =   0.0000000000000E+00
(PID.TID 0000.0001) %MON trAdv_CFL_u_max              =   2.1701481023517E-03
(PID.TID 0000.0001) %MON trAdv_CFL_v_max              =   3.0760108818108E-03
(PID.TID 0000.0001) %MON trAdv_CFL_w_max              =   1.1508179265611E-08
(PID.TID 0000.0001) %MON advcfl_uvel_max              =   2.1748601244647E-03
(PID.TID 0000.0001) %MON advcfl_vvel_max              =   3.0846943623709E-03
(PID.TID 0000.0001) %MON advcfl_wvel_max              =   2.1778371922206E-08
(PID.TID 0000.0001) %MON advcfl_W_hf_max              =   0.0000000000000E+00
(PID.TID 0000.0001) %MON pe_b_mean                    =   1.2291378288784E-07
(PID.TID 0000.0001) %MON ke_max                       =   8.2590490091111E-05
(PID.TID 0000.0001) %MON ke_mean                      =   1.6780986909681E-05
(PID.TID 0000.0001) %MON ke_vol                       =   7.2529629296391E+15
(PID.TID 0000.0001) %MON vort_r_min                   =  -5.5070119474215E-07
(PID.TID 0000.0001) %MON vort_r_max                   =   8.5015438034423E-07
(PID.TID 0000.0001) %MON vort_a_mean                  =   1.0615000000000E-04
(PID.TID 0000.0001) %MON vort_a_sd                    =   3.5661713088502E-06
(PID.TID 0000.0001) %MON vort_p_mean                  =   1.1210870169429E-04
(PID.TID 0000.0001) %MON vort_p_sd                    =   2.1049234849307E-05
(PID.TID 0000.0001) %MON surfExpan_theta_mean         =   1.0597973685097E-20
(PID.TID 0000.0001) %MON surfExpan_salt_mean          =   1.6246206060807E-20
(PID.TID 0000.0001) // =======================================================
(PID.TID 0000.0001) // End MONITOR dynamic field statistics
(PID.TID 0000.0001) // =======================================================
 cg2d: Sum(rhs),rhsMax =   9.47038247572918E-06  2.78618508886343E-03
 cg2d: Sum(rhs),rhsMax =   9.47290742078777E-06  2.79174587105179E-03
 cg2d: Sum(rhs),rhsMax =   9.47532303770260E-06  2.79730243018274E-03
 cg2d: Sum(rhs),rhsMax =   9.47765677220685E-06  2.80285474371574E-03
 cg2d: Sum(rhs),rhsMax =   9.47990586338404E-06  2.80840278910152E-03
 cg2d: Sum(rhs),rhsMax =   9.48207638880316E-06  2.81394654378102E-03
 cg2d: Sum(rhs),rhsMax =   9.48415966644384E-06  2.81948598518739E-03
 cg2d: Sum(rhs),rhsMax =   9.48614613064530E-06  2.82502109074521E-03
 cg2d: Sum(rhs),rhsMax =   9.48806451354228E-06  2.83055183787175E-03
 cg2d: Sum(rhs),rhsMax =   9.48989343096951E-06  2.83607820397664E-03
 cg2d: Sum(rhs),rhsMax =   9.49165933664814E-06  2.84160016646301E-03
 cg2d: Sum(rhs),rhsMax =   9.49331486917171E-06  2.84711770272753E-03
 cg2d: Sum(rhs),rhsMax =   9.49491118160117E-06  2.85263079016072E-03
 cg2d: Sum(rhs),rhsMax =   9.49642053379302E-06  2.85813940614770E-03
 cg2d: Sum(rhs),rhsMax =   9.50025023154638E-06  2.86364352608270E-03
 cg2d: Sum(rhs),rhsMax =   9.50652710360322E-06  2.86914313130925E-03
 cg2d: Sum(rhs),rhsMax =   9.51266700550263E-06  2.87463819734402E-03
 cg2d: Sum(rhs),rhsMax =   9.51871779659996E-06  2.88012870118753E-03
 cg2d: Sum(rhs),rhsMax =   9.52464300696398E-06  2.88561462050279E-03
 cg2d: Sum(rhs),rhsMax =   9.53044703802530E-06  2.89109593265867E-03
 cg2d: Sum(rhs),rhsMax =   9.53615670784558E-06  2.89657261488704E-03
 cg2d: Sum(rhs),rhsMax =   9.54175409446922E-06  2.90204464471800E-03
 cg2d: Sum(rhs),rhsMax =   9.54719993467162E-06  2.90751888398825E-03
 cg2d: Sum(rhs),rhsMax =   9.55246535466747E-06  2.91301582327454E-03
 cg2d: Sum(rhs),rhsMax =   9.55761269881561E-06  2.91850812901528E-03
 cg2d: Sum(rhs),rhsMax =   9.56265150482000E-06  2.92399577815168E-03
 cg2d: Sum(rhs),rhsMax =   9.56758308862105E-06  2.92947874771224E-03
 cg2d: Sum(rhs),rhsMax =   9.57241759564492E-06  2.93495701467007E-03
 cg2d: Sum(rhs),rhsMax =   9.57714263112586E-06  2.94043055603270E-03
 cg2d: Sum(rhs),rhsMax =   9.58176127936750E-06  2.94589934878981E-03
 cg2d: Sum(rhs),rhsMax =   9.58628181744331E-06  2.95136336994562E-03
 cg2d: Sum(rhs),rhsMax =   9.59070243940902E-06  2.95682259649595E-03
 cg2d: Sum(rhs),rhsMax =   9.59502486083674E-06  2.96227700544674E-03
 cg2d: Sum(rhs),rhsMax =   9.59923466651441E-06  2.96772657379948E-03
 cg2d: Sum(rhs),rhsMax =   9.60334618007458E-06  2.97317127856321E-03
 cg2d: Sum(rhs),rhsMax =   9.60737127551903E-06  2.97861109674671E-03
 cg2d: Sum(rhs),rhsMax =   9.61128418058843E-06  2.98404600536391E-03
 cg2d: Sum(rhs),rhsMax =   9.61511238787432E-06  2.98947598143226E-03
 cg2d: Sum(rhs),rhsMax =   9.61883240625100E-06  2.99490100197236E-03
 cg2d: Sum(rhs),rhsMax =   9.62246217624946E-06  3.00032104401188E-03
 cg2d: Sum(rhs),rhsMax =   9.62599859869601E-06  3.00573608457932E-03
 cg2d: Sum(rhs),rhsMax =   9.62944977814240E-06  3.01114610071321E-03
 cg2d: Sum(rhs),rhsMax =   9.63278267888251E-06  3.01655106945266E-03
 cg2d: Sum(rhs),rhsMax =   9.63605079672830E-06  3.02195096784768E-03
 cg2d: Sum(rhs),rhsMax =   9.63921372782589E-06  3.02734577294929E-03
 cg2d: Sum(rhs),rhsMax =   9.64227776407284E-06  3.03273546182057E-03
 cg2d: Sum(rhs),rhsMax =   9.64525743624156E-06  3.03812001152604E-03
 cg2d: Sum(rhs),rhsMax =   9.64815017468965E-06  3.04349939914286E-03
 cg2d: Sum(rhs),rhsMax =   9.65335074488982E-06  3.04887360305235E-03
 cg2d: Sum(rhs),rhsMax =   9.65844881971323E-06  3.05424259805507E-03
 cg2d: Sum(rhs),rhsMax =   9.66343794961064E-06  3.05960636172275E-03
 cg2d: Sum(rhs),rhsMax =   9.66832507441617E-06  3.06496487211798E-03
 cg2d: Sum(rhs),rhsMax =   9.67310542120473E-06  3.07031810543929E-03
 cg2d: Sum(rhs),rhsMax =   9.67778787288459E-06  3.07566603978042E-03
 cg2d: Sum(rhs),rhsMax =   9.68237243144376E-06  3.08100865127795E-03
 cg2d: Sum(rhs),rhsMax =   9.68685033419375E-06  3.08634591809896E-03
 cg2d: Sum(rhs),rhsMax =   9.69122671784159E-06  3.09167781636391E-03
 cg2d: Sum(rhs),rhsMax =   9.69549486726923E-06  3.09700432427269E-03
 cg2d: Sum(rhs),rhsMax =   9.69968802565571E-06  3.10232541797620E-03
 cg2d: Sum(rhs),rhsMax =   9.70375065549936E-06  3.10764107567423E-03
 cg2d: Sum(rhs),rhsMax =   9.70774408554434E-06  3.11295127357114E-03
 cg2d: Sum(rhs),rhsMax =   9.71162579705559E-06  3.11825598985316E-03
 cg2d: Sum(rhs),rhsMax =   9.71536659985853E-06  3.12357779109129E-03
 cg2d: Sum(rhs),rhsMax =   9.71894406006160E-06  3.12890746494603E-03
 cg2d: Sum(rhs),rhsMax =   9.72244986038873E-06  3.13423166437840E-03
 cg2d: Sum(rhs),rhsMax =   9.72586473549364E-06  3.13955036899182E-03
 cg2d: Sum(rhs),rhsMax =   9.72917220335920E-06  3.14486355304456E-03
 cg2d: Sum(rhs),rhsMax =   9.73240258545296E-06  3.15017119613009E-03
 cg2d: Sum(rhs),rhsMax =   9.73552550246129E-06  3.15547327256853E-03
 cg2d: Sum(rhs),rhsMax =   9.73857112206503E-06  3.16076976194993E-03
 cg2d: Sum(rhs),rhsMax =   9.74153759010846E-06  3.16606063865370E-03
 cg2d: Sum(rhs),rhsMax =   9.74440445504141E-06  3.17134588227126E-03
(PID.TID 0000.0001)      cg2d_init_res =   4.07722482260812E-02
(PID.TID 0000.0001)      cg2d_iters(min,last) =      -1     405
(PID.TID 0000.0001)      cg2d_last_res =   9.55560240804594E-08
(PID.TID 0000.0001) // =======================================================
(PID.TID 0000.0001) // Begin MONITOR dynamic field statistics
(PID.TID 0000.0001) // =======================================================
(PID.TID 0000.0001) %MON time_tsnumber                =                   504
(PID.TID 0000.0001) %MON time_secondsf                =   6.0480000000000E+05
(PID.TID 0000.0001) %MON dynstat_eta_max              =   2.4751847129504E-02
(PID.TID 0000.0001) %MON dynstat_eta_min              =  -2.5139634788761E-02
(PID.TID 0000.0001) %MON dynstat_eta_mean             =  -1.4734705427228E-10
(PID.TID 0000.0001) %MON dynstat_eta_sd               =   1.2529347871603E-02
(PID.TID 0000.0001) %MON dynstat_eta_del2             =   8.0776202098512E-08
(PID.TID 0000.0001) %MON dynstat_uvel_max             =   9.6450854824235E-03
(PID.TID 0000.0001) %MON dynstat_uvel_min             =  -1.0436167704740E-02
(PID.TID 0000.0001) %MON dynstat_uvel_mean            =  -7.2007245333141E-07
(PID.TID 0000.0001) %MON dynstat_uvel_sd              =   5.4122490184747E-03
(PID.TID 0000.0001) %MON dynstat_uvel_del2            =   3.1423682092768E-07
(PID.TID 0000.0001) %MON dynstat_vvel_max             =   1.5395278267963E-02
(PID.TID 0000.0001) %MON dynstat_vvel_min             =  -8.4833748026814E-03
(PID.TID 0000.0001) %MON dynstat_vvel_mean            =  -6.1993734167719E-07
(PID.TID 0000.0001) %MON dynstat_vvel_sd              =   3.8869748989580E-03
(PID.TID 0000.0001) %MON dynstat_vvel_del2            =   4.2765299338263E-07
(PID.TID 0000.0001) %MON dynstat_wvel_max             =   4.5271379718324E-08
(PID.TID 0000.0001) %MON dynstat_wvel_min             =  -4.4469073917353E-08
(PID.TID 0000.0001) %MON dynstat_wvel_mean            =  -6.1755142623151E-22
(PID.TID 0000.0001) %MON dynstat_wvel_sd              =   2.0228606987903E-08
(PID.TID 0000.0001) %MON dynstat_wvel_del2            =   1.3843203660370E-13
(PID.TID 0000.0001) %MON dynstat_theta_max            =   2.0000000000000E+01
(PID.TID 0000.0001) %MON dynstat_theta_min            =   2.0000000000000E+01
(PID.TID 0000.0001) %MON dynstat_theta_mean           =   1.9999999999999E+01
(PID.TID 0000.0001) %MON dynstat_theta_sd             =   1.1972645097557E-12
(PID.TID 0000.0001) %MON dynstat_theta_del2           =   0.0000000000000E+00
(PID.TID 0000.0001) %MON dynstat_salt_max             =   3.0000000000000E+01
(PID.TID 0000.0001) %MON dynstat_salt_min             =   3.0000000000000E+01
(PID.TID 0000.0001) %MON dynstat_salt_mean            =   2.9999999999998E+01
(PID.TID 0000.0001) %MON dynstat_salt_sd              =   2.1529444893531E-12
(PID.TID 0000.0001) %MON dynstat_salt_del2            =   0.0000000000000E+00
(PID.TID 0000.0001) %MON trAdv_CFL_u_max              =   2.5001611347128E-03
(PID.TID 0000.0001) %MON trAdv_CFL_v_max              =   3.6861367642797E-03
(PID.TID 0000.0001) %MON trAdv_CFL_w_max              =   1.1461032035810E-08
(PID.TID 0000.0001) %MON advcfl_uvel_max              =   2.5046802491375E-03
(PID.TID 0000.0001) %MON advcfl_vvel_max              =   3.6948667843111E-03
(PID.TID 0000.0001) %MON advcfl_wvel_max              =   2.1730262264796E-08
(PID.TID 0000.0001) %MON advcfl_W_hf_max              =   0.0000000000000E+00
(PID.TID 0000.0001) %MON pe_b_mean                    =   1.6061670476627E-07
(PID.TID 0000.0001) %MON ke_max                       =   1.1850237949020E-04
(PID.TID 0000.0001) %MON ke_mean                      =   2.2100574171636E-05
(PID.TID 0000.0001) %MON ke_vol                       =   7.2529629296391E+15
(PID.TID 0000.0001) %MON vort_r_min                   =  -5.9986251800602E-07
(PID.TID 0000.0001) %MON vort_r_max                   =   9.8635424652552E-07
(PID.TID 0000.0001) %MON vort_a_mean                  =   1.0615000000000E-04
(PID.TID 0000.0001) %MON vort_a_sd                    =   3.5664746022090E-06
(PID.TID 0000.0001) %MON vort_p_mean                  =   1.1210870169429E-04
(PID.TID 0000.0001) %MON vort_p_sd                    =   2.1049383352810E-05
(PID.TID 0000.0001) %MON surfExpan_theta_mean         =  -1.1921520681204E-20
(PID.TID 0000.0001) %MON surfExpan_salt_mean          =  -1.7492973675302E-20
(PID.TID 0000.0001) // =======================================================
(PID.TID 0000.0001) // End MONITOR dynamic field statistics
(PID.TID 0000.0001) // =======================================================
 cg2d: Sum(rhs),rhsMax =   9.74718881019757E-06  3.17662546723881E-03
 cg2d: Sum(rhs),rhsMax =   9.74989273996862E-06  3.18189937315343E-03
 cg2d: Sum(rhs),rhsMax =   9.75249755988394E-06  3.18716757450745E-03
 cg2d: Sum(rhs),rhsMax =   9.75710095189875E-06  3.19243004904317E-03
 cg2d: Sum(rhs),rhsMax =   9.76158968047161E-06  3.19768677587350E-03
 cg2d: Sum(rhs),rhsMax =   9.76599003269310E-06  3.20293773085090E-03
 cg2d: Sum(rhs),rhsMax =   9.77029668059945E-06  3.20818289063182E-03
 cg2d: Sum(rhs),rhsMax =   9.77450013526018E-06  3.21342223258406E-03
 cg2d: Sum(rhs),rhsMax =   9.77860977338652E-06  3.21865573391369E-03
 cg2d: Sum(rhs),rhsMax =   9.78263057426973E-06  3.22388337132124E-03
 cg2d: Sum(rhs),rhsMax =   9.78654906553036E-06  3.22910512298977E-03
 cg2d: Sum(rhs),rhsMax =   9.79037104753555E-06  3.23432096487016E-03
 cg2d: Sum(rhs),rhsMax =   9.79411332172747E-06  3.23953087561913E-03
 cg2d: Sum(rhs),rhsMax =   9.79775990505791E-06  3.24473483106357E-03
 cg2d: Sum(rhs),rhsMax =   9.80356164613158E-06  3.24993280833188E-03
 cg2d: Sum(rhs),rhsMax =   9.80925367347757E-06  3.25512478738550E-03
 cg2d: Sum(rhs),rhsMax =   9.81484753772785E-06  3.26031074227218E-03
 cg2d: Sum(rhs),rhsMax =   9.82033553684897E-06  3.26549065301416E-03
 cg2d: Sum(rhs),rhsMax =   9.82571406440286E-06  3.27066449417252E-03
 cg2d: Sum(rhs),rhsMax =   9.83098827252518E-06  3.27583224594182E-03
 cg2d: Sum(rhs),rhsMax =   9.83616843922702E-06  3.28099388287584E-03
 cg2d: Sum(rhs),rhsMax =   9.84124333733988E-06  3.28614938526518E-03
 cg2d: Sum(rhs),rhsMax =   9.84623303733334E-06  3.29129872761083E-03
 cg2d: Sum(rhs),rhsMax =   9.85111206685402E-06  3.29644189028529E-03
 cg2d: Sum(rhs),rhsMax =   9.85589469873829E-06  3.30157884783995E-03
 cg2d: Sum(rhs),rhsMax =   9.86059027556843E-06  3.30670958066665E-03
 cg2d: Sum(rhs),rhsMax =   9.86517983658786E-06  3.31183406339705E-03
 cg2d: Sum(rhs),rhsMax =   9.86968321630907E-06  3.31695227642815E-03
 cg2d: Sum(rhs),rhsMax =   9.87408488923452E-06  3.32206419447727E-03
 cg2d: Sum(rhs),rhsMax =   9.87841040820531E-06  3.32717185319351E-03
 cg2d: Sum(rhs),rhsMax =   9.88250044607619E-06  3.33230852491891E-03
 cg2d: Sum(rhs),rhsMax =   9.88653010581750E-06  3.33743890548148E-03
 cg2d: Sum(rhs),rhsMax =   9.89046926686346E-06  3.34256296986166E-03
 cg2d: Sum(rhs),rhsMax =   9.89429864589955E-06  3.34768069772521E-03
 cg2d: Sum(rhs),rhsMax =   9.89806477203967E-06  3.35279206410212E-03
 cg2d: Sum(rhs),rhsMax =   9.90172828370384E-06  3.35789704871182E-03
 cg2d: Sum(rhs),rhsMax =   9.90530624402769E-06  3.36299562662661E-03
 cg2d: Sum(rhs),rhsMax =   9.90879773491576E-06  3.36808777762747E-03
 cg2d: Sum(rhs),rhsMax =   9.91222184127880E-06  3.37317347682484E-03
 cg2d: Sum(rhs),rhsMax =   9.91553763810341E-06  3.37825270406689E-03
 cg2d: Sum(rhs),rhsMax =   9.91878218767339E-06  3.38332543449906E-03
 cg2d: Sum(rhs),rhsMax =   9.92194954999026E-06  3.38839164804045E-03
 cg2d: Sum(rhs),rhsMax =   9.92503903929701E-06  3.39345131987039E-03
 cg2d: Sum(rhs),rhsMax =   9.92803840708240E-06  3.39850442998261E-03
 cg2d: Sum(rhs),rhsMax =   9.93095687940732E-06  3.40355095358855E-03
 cg2d: Sum(rhs),rhsMax =   9.93381252110265E-06  3.40859087075906E-03
 cg2d: Sum(rhs),rhsMax =   9.93656779069499E-06  3.41362415673882E-03
 cg2d: Sum(rhs),rhsMax =   9.93926714586840E-06  3.41865079167675E-03
 cg2d: Sum(rhs),rhsMax =   9.94187048267495E-06  3.42367075085042E-03
 cg2d: Sum(rhs),rhsMax =   9.94441591697579E-06  3.42868401448886E-03
 cg2d: Sum(rhs),rhsMax =   9.94687739791153E-06  3.43369055790360E-03
 cg2d: Sum(rhs),rhsMax =   9.94927829480255E-06  3.43869036140471E-03
 cg2d: Sum(rhs),rhsMax =   9.95159788769184E-06  3.44368340033814E-03
 cg2d: Sum(rhs),rhsMax =   9.95385243147615E-06  3.44866965509688E-03
 cg2d: Sum(rhs),rhsMax =   9.95602037582796E-06  3.45364910106087E-03
 cg2d: Sum(rhs),rhsMax =   9.95813044591884E-06  3.45862171870742E-03
 cg2d: Sum(rhs),rhsMax =   9.96402840604260E-06  3.46358748560165E-03
 cg2d: Sum(rhs),rhsMax =   9.96982560011461E-06  3.46854637801198E-03
 cg2d: Sum(rhs),rhsMax =   9.97554556334684E-06  3.47349837345157E-03
 cg2d: Sum(rhs),rhsMax =   9.98114850759430E-06  3.47844345284972E-03
 cg2d: Sum(rhs),rhsMax =   9.98666837699613E-06  3.48338159130280E-03
 cg2d: Sum(rhs),rhsMax =   9.99210808055873E-06  3.48831276991735E-03
 cg2d: Sum(rhs),rhsMax =   9.99745753751599E-06  3.49323696386471E-03
 cg2d: Sum(rhs),rhsMax =   1.00027038833841E-05  3.49815415433160E-03
 cg2d: Sum(rhs),rhsMax =   1.00078812005355E-05  3.50306431651766E-03
 cg2d: Sum(rhs),rhsMax =   1.00129590107911E-05  3.50796743170657E-03
 cg2d: Sum(rhs),rhsMax =   1.00179646434322E-05  3.51286347513161E-03
 cg2d: Sum(rhs),rhsMax =   1.00228752462003E-05  3.51775242816914E-03
 cg2d: Sum(rhs),rhsMax =   1.00277098671400E-05  3.52263426609098E-03
 cg2d: Sum(rhs),rhsMax =   1.00324164747610E-05  3.52752472523688E-03
 cg2d: Sum(rhs),rhsMax =   1.00369744546157E-05  3.53243096849575E-03
 cg2d: Sum(rhs),rhsMax =   1.00414666633700E-05  3.53733009344278E-03
(PID.TID 0000.0001)      cg2d_init_res =   3.56649602928337E-02
(PID.TID 0000.0001)      cg2d_iters(min,last) =      -1     401
(PID.TID 0000.0001)      cg2d_last_res =   9.70059521280119E-08
(PID.TID 0000.0001) // =======================================================
(PID.TID 0000.0001) // Begin MONITOR dynamic field statistics
(PID.TID 0000.0001) // =======================================================
(PID.TID 0000.0001) %MON time_tsnumber                =                   576
(PID.TID 0000.0001) %MON time_secondsf                =   6.9120000000000E+05
(PID.TID 0000.0001) %MON dynstat_eta_max              =   2.8056911890943E-02
(PID.TID 0000.0001) %MON dynstat_eta_min              =  -2.8603336693621E-02
(PID.TID 0000.0001) %MON dynstat_eta_mean             =  -1.6933975177507E-10
(PID.TID 0000.0001) %MON dynstat_eta_sd               =   1.4003750092994E-02
(PID.TID 0000.0001) %MON dynstat_eta_del2             =   9.0830954864587E-08
(PID.TID 0000.0001) %MON dynstat_uvel_max             =   1.0528957523539E-02
(PID.TID 0000.0001) %MON dynstat_uvel_min             =  -1.1749057550683E-02
(PID.TID 0000.0001) %MON dynstat_uvel_mean            =  -7.2801757482519E-07
(PID.TID 0000.0001) %MON dynstat_uvel_sd              =   5.9365529389581E-03
(PID.TID 0000.0001) %MON dynstat_uvel_del2            =   3.1531340453862E-07
(PID.TID 0000.0001) %MON dynstat_vvel_max             =   1.7916416809945E-02
(PID.TID 0000.0001) %MON dynstat_vvel_min             =  -9.2750139959933E-03
(PID.TID 0000.0001) %MON dynstat_vvel_mean            =  -4.8926805194632E-07
(PID.TID 0000.0001) %MON dynstat_vvel_sd              =   4.5505928180860E-03
(PID.TID 0000.0001) %MON dynstat_vvel_del2            =   4.6243250179749E-07
(PID.TID 0000.0001) %MON dynstat_wvel_max             =   4.4781858908827E-08
(PID.TID 0000.0001) %MON dynstat_wvel_min             =  -4.4821730309195E-08
(PID.TID 0000.0001) %MON dynstat_wvel_mean            =   1.0227728560154E-21
(PID.TID 0000.0001) %MON dynstat_wvel_sd              =   1.9824890780310E-08
(PID.TID 0000.0001) %MON dynstat_wvel_del2            =   1.3606992790000E-13
(PID.TID 0000.0001) %MON dynstat_theta_max            =   2.0000000000000E+01
(PID.TID 0000.0001) %MON dynstat_theta_min            =   2.0000000000000E+01
(PID.TID 0000.0001) %MON dynstat_theta_mean           =   1.9999999999999E+01
(PID.TID 0000.0001) %MON dynstat_theta_sd             =   1.1972645097557E-12
(PID.TID 0000.0001) %MON dynstat_theta_del2           =   0.0000000000000E+00
(PID.TID 0000.0001) %MON dynstat_salt_max             =   3.0000000000000E+01
(PID.TID 0000.0001) %MON dynstat_salt_min             =   3.0000000000000E+01
(PID.TID 0000.0001) %MON dynstat_salt_mean            =   2.9999999999998E+01
(PID.TID 0000.0001) %MON dynstat_salt_sd              =   2.1529444893531E-12
(PID.TID 0000.0001) %MON dynstat_salt_del2            =   0.0000000000000E+00
(PID.TID 0000.0001) %MON trAdv_CFL_u_max              =   2.8153871136269E-03
(PID.TID 0000.0001) %MON trAdv_CFL_v_max              =   4.2913640244029E-03
(PID.TID 0000.0001) %MON trAdv_CFL_w_max              =   1.1316485311285E-08
(PID.TID 0000.0001) %MON advcfl_uvel_max              =   2.8197738121640E-03
(PID.TID 0000.0001) %MON advcfl_vvel_max              =   4.2999400343869E-03
(PID.TID 0000.0001) %MON advcfl_wvel_max              =   2.1514430548414E-08
(PID.TID 0000.0001) %MON advcfl_W_hf_max              =   0.0000000000000E+00
(PID.TID 0000.0001) %MON pe_b_mean                    =   2.0064229213938E-07
(PID.TID 0000.0001) %MON ke_max                       =   1.6048605598088E-04
(PID.TID 0000.0001) %MON ke_mean                      =   2.7849350907117E-05
(PID.TID 0000.0001) %MON ke_vol                       =   7.2529629296391E+15
(PID.TID 0000.0001) %MON vort_r_min                   =  -6.3931872816483E-07
(PID.TID 0000.0001) %MON vort_r_max                   =   1.1161576442772E-06
(PID.TID 0000.0001) %MON vort_a_mean                  =   1.0615000000000E-04
(PID.TID 0000.0001) %MON vort_a_sd                    =   3.5667863779292E-06
(PID.TID 0000.0001) %MON vort_p_mean                  =   1.1210870169429E-04
(PID.TID 0000.0001) %MON vort_p_sd                    =   2.1049607803852E-05
(PID.TID 0000.0001) %MON surfExpan_theta_mean         =   2.0494966245856E-20
(PID.TID 0000.0001) %MON surfExpan_salt_mean          =   3.0590525008837E-20
(PID.TID 0000.0001) // =======================================================
(PID.TID 0000.0001) // End MONITOR dynamic field statistics
(PID.TID 0000.0001) // =======================================================
 cg2d: Sum(rhs),rhsMax =   1.00458532692332E-05  3.54222207699530E-03
 cg2d: Sum(rhs),rhsMax =   1.00501734510670E-05  3.54710689858543E-03
 cg2d: Sum(rhs),rhsMax =   1.00544247588728E-05  3.55198453513444E-03
 cg2d: Sum(rhs),rhsMax =   1.00585972509955E-05  3.55685496620735E-03
 cg2d: Sum(rhs),rhsMax =   1.00626924222288E-05  3.56171816873041E-03
 cg2d: Sum(rhs),rhsMax =   1.00667134917999E-05  3.56657412240269E-03
 cg2d: Sum(rhs),rhsMax =   1.00706677401488E-05  3.57142280415535E-03
 cg2d: Sum(rhs),rhsMax =   1.00745508526193E-05  3.57626419382212E-03
 cg2d: Sum(rhs),rhsMax =   1.00783500585448E-05  3.58109826834248E-03
 cg2d: Sum(rhs),rhsMax =   1.00820858584226E-05  3.58592500768355E-03
 cg2d: Sum(rhs),rhsMax =   1.00857677430947E-05  3.59074438879409E-03
 cg2d: Sum(rhs),rhsMax =   1.00893467393989E-05  3.59555639177644E-03
 cg2d: Sum(rhs),rhsMax =   1.00928905807651E-05  3.60036099358896E-03
 cg2d: Sum(rhs),rhsMax =   1.00963611311677E-05  3.60515817446962E-03
 cg2d: Sum(rhs),rhsMax =   1.00997550969359E-05  3.60994791138785E-03
 cg2d: Sum(rhs),rhsMax =   1.01031051586188E-05  3.61473018471684E-03
 cg2d: Sum(rhs),rhsMax =   1.01063872407388E-05  3.61950497144003E-03
 cg2d: Sum(rhs),rhsMax =   1.01095892722884E-05  3.62427225206594E-03
 cg2d: Sum(rhs),rhsMax =   1.01127473881926E-05  3.62903200359274E-03
 cg2d: Sum(rhs),rhsMax =   1.01158541310035E-05  3.63378420666352E-03
 cg2d: Sum(rhs),rhsMax =   1.01188860092659E-05  3.63852883829397E-03
 cg2d: Sum(rhs),rhsMax =   1.01218685600694E-05  3.64326587926218E-03
 cg2d: Sum(rhs),rhsMax =   1.01247844550845E-05  3.64799530660254E-03
 cg2d: Sum(rhs),rhsMax =   1.01276520037066E-05  3.65271710122736E-03
 cg2d: Sum(rhs),rhsMax =   1.01304641099524E-05  3.65743124019263E-03
 cg2d: Sum(rhs),rhsMax =   1.01332027965945E-05  3.66213770454408E-03
 cg2d: Sum(rhs),rhsMax =   1.01359145153017E-05  3.66683647136136E-03
 cg2d: Sum(rhs),rhsMax =   1.01385713853902E-05  3.67152752182294E-03
 cg2d: Sum(rhs),rhsMax =   1.01411711359023E-05  3.67621083303457E-03
 cg2d: Sum(rhs),rhsMax =   1.01437192101539E-05  3.68088638630710E-03
 cg2d: Sum(rhs),rhsMax =   1.01462239572754E-05  3.68555415877411E-03
 cg2d: Sum(rhs),rhsMax =   1.01486762517158E-05  3.69021413187784E-03
 cg2d: Sum(rhs),rhsMax =   1.01510832284241E-05  3.69486628278318E-03
 cg2d: Sum(rhs),rhsMax =   1.01534382456435E-05  3.69951059306234E-03
 cg2d: Sum(rhs),rhsMax =   1.01557550762771E-05  3.70414703991365E-03
 cg2d: Sum(rhs),rhsMax =   1.01580118827271E-05  3.70877560503895E-03
 cg2d: Sum(rhs),rhsMax =   1.01602416891708E-05  3.71339626567248E-03
 cg2d: Sum(rhs),rhsMax =   1.01623553015184E-05  3.71803539662626E-03
 cg2d: Sum(rhs),rhsMax =   1.01643919068369E-05  3.72267998102538E-03
 cg2d: Sum(rhs),rhsMax =   1.01663788279575E-05  3.72731665127044E-03
 cg2d: Sum(rhs),rhsMax =   1.01683307901917E-05  3.73194538696023E-03
 cg2d: Sum(rhs),rhsMax =   1.01702354852427E-05  3.73656616722894E-03
 cg2d: Sum(rhs),rhsMax =   1.01721076478795E-05  3.74117897169603E-03
 cg2d: Sum(rhs),rhsMax =   1.01739401700933E-05  3.74578377964366E-03
 cg2d: Sum(rhs),rhsMax =   1.01757304069375E-05  3.75038057071385E-03
 cg2d: Sum(rhs),rhsMax =   1.01808934737761E-05  3.75496932426067E-03
 cg2d: Sum(rhs),rhsMax =   1.01860084205964E-05  3.75955002011845E-03
 cg2d: Sum(rhs),rhsMax =   1.01910535177975E-05  3.76412263779247E-03
 cg2d: Sum(rhs),rhsMax =   1.01960670960133E-05  3.76868715695418E-03
 cg2d: Sum(rhs),rhsMax =   1.02010238645436E-05  3.77324355732904E-03
 cg2d: Sum(rhs),rhsMax =   1.02059214254352E-05  3.77779181863268E-03
 cg2d: Sum(rhs),rhsMax =   1.02107879465727E-05  3.78233192075384E-03
 cg2d: Sum(rhs),rhsMax =   1.02155959299487E-05  3.78686384342979E-03
 cg2d: Sum(rhs),rhsMax =   1.02203712480584E-05  3.79138756669921E-03
 cg2d: Sum(rhs),rhsMax =   1.02250938497257E-05  3.79590307032432E-03
 cg2d: Sum(rhs),rhsMax =   1.02297753872722E-05  3.80041033449467E-03
 cg2d: Sum(rhs),rhsMax =   1.02344269350581E-05  3.80490933900001E-03
 cg2d: Sum(rhs),rhsMax =   1.02390226210010E-05  3.80940006418267E-03
 cg2d: Sum(rhs),rhsMax =   1.02435881616861E-05  3.81388248986197E-03
 cg2d: Sum(rhs),rhsMax =   1.02481151422230E-05  3.81835659653149E-03
 cg2d: Sum(rhs),rhsMax =   1.02525916083340E-05  3.82282236404213E-03
 cg2d: Sum(rhs),rhsMax =   1.02570430821902E-05  3.82727977303950E-03
 cg2d: Sum(rhs),rhsMax =   1.02614579430144E-05  3.83172880340697E-03
 cg2d: Sum(rhs),rhsMax =   1.02658349071388E-05  3.83616943594118E-03
 cg2d: Sum(rhs),rhsMax =   1.02701674822327E-05  3.84060165056109E-03
 cg2d: Sum(rhs),rhsMax =   1.02744834936420E-05  3.84502542821304E-03
 cg2d: Sum(rhs),rhsMax =   1.02787687430439E-05  3.84944074885223E-03
 cg2d: Sum(rhs),rhsMax =   1.02830233840966E-05  3.85384759357673E-03
 cg2d: Sum(rhs),rhsMax =   1.02872485813824E-05  3.85824594237958E-03
 cg2d: Sum(rhs),rhsMax =   1.02914408415394E-05  3.86263577650875E-03
 cg2d: Sum(rhs),rhsMax =   1.02956022397897E-05  3.86701707599699E-03
 cg2d: Sum(rhs),rhsMax =   1.02997400105824E-05  3.87138982224276E-03
(PID.TID 0000.0001)      cg2d_init_res =   3.17056168025232E-02
(PID.TID 0000.0001)      cg2d_iters(min,last) =      -1     399
(PID.TID 0000.0001)      cg2d_last_res =   9.70445460554869E-08
(PID.TID 0000.0001) // =======================================================
(PID.TID 0000.0001) // Begin MONITOR dynamic field statistics
(PID.TID 0000.0001) // =======================================================
(PID.TID 0000.0001) %MON time_tsnumber                =                   648
(PID.TID 0000.0001) %MON time_secondsf                =   7.7760000000000E+05
(PID.TID 0000.0001) %MON dynstat_eta_max              =   3.1164962220207E-02
(PID.TID 0000.0001) %MON dynstat_eta_min              =  -3.1967743115382E-02
(PID.TID 0000.0001) %MON dynstat_eta_mean             =  -1.9004305224909E-10
(PID.TID 0000.0001) %MON dynstat_eta_sd               =   1.5379346397821E-02
(PID.TID 0000.0001) %MON dynstat_eta_del2             =   1.0037527271049E-07
(PID.TID 0000.0001) %MON dynstat_uvel_max             =   1.1330767875440E-02
(PID.TID 0000.0001) %MON dynstat_uvel_min             =  -1.3017940122417E-02
(PID.TID 0000.0001) %MON dynstat_uvel_mean            =  -7.0931323883319E-07
(PID.TID 0000.0001) %MON dynstat_uvel_sd              =   6.3919164244594E-03
(PID.TID 0000.0001) %MON dynstat_uvel_del2            =   3.1334538156756E-07
(PID.TID 0000.0001) %MON dynstat_vvel_max             =   2.0362043909127E-02
(PID.TID 0000.0001) %MON dynstat_vvel_min             =  -9.9683920012078E-03
(PID.TID 0000.0001) %MON dynstat_vvel_mean            =  -3.6110131461382E-07
(PID.TID 0000.0001) %MON dynstat_vvel_sd              =   5.2218645020647E-03
(PID.TID 0000.0001) %MON dynstat_vvel_del2            =   4.9355469238809E-07
(PID.TID 0000.0001) %MON dynstat_wvel_max             =   4.3942015432986E-08
(PID.TID 0000.0001) %MON dynstat_wvel_min             =  -4.5160958868510E-08
(PID.TID 0000.0001) %MON dynstat_wvel_mean            =  -1.5242303705213E-21
(PID.TID 0000.0001) %MON dynstat_wvel_sd              =   1.9444023975829E-08
(PID.TID 0000.0001) %MON dynstat_wvel_del2            =   1.3337353441239E-13
(PID.TID 0000.0001) %MON dynstat_theta_max            =   2.0000000000000E+01
(PID.TID 0000.0001) %MON dynstat_theta_min            =   2.0000000000000E+01
(PID.TID 0000.0001) %MON dynstat_theta_mean           =   1.9999999999999E+01
(PID.TID 0000.0001) %MON dynstat_theta_sd             =   1.1972645097557E-12
(PID.TID 0000.0001) %MON dynstat_theta_del2           =   0.0000000000000E+00
(PID.TID 0000.0001) %MON dynstat_salt_max             =   3.0000000000000E+01
(PID.TID 0000.0001) %MON dynstat_salt_min             =   3.0000000000000E+01
(PID.TID 0000.0001) %MON dynstat_salt_mean            =   2.9999999999998E+01
(PID.TID 0000.0001) %MON dynstat_salt_sd              =   2.1529444893531E-12
(PID.TID 0000.0001) %MON dynstat_salt_del2            =   0.0000000000000E+00
(PID.TID 0000.0001) %MON trAdv_CFL_u_max              =   3.1201268668388E-03
(PID.TID 0000.0001) %MON trAdv_CFL_v_max              =   4.8786222172906E-03
(PID.TID 0000.0001) %MON trAdv_CFL_w_max              =   1.1083434878191E-08
(PID.TID 0000.0001) %MON advcfl_uvel_max              =   3.1243056293801E-03
(PID.TID 0000.0001) %MON advcfl_vvel_max              =   4.8868905381904E-03
(PID.TID 0000.0001) %MON advcfl_wvel_max              =   2.1677260256885E-08
(PID.TID 0000.0001) %MON advcfl_W_hf_max              =   0.0000000000000E+00
(PID.TID 0000.0001) %MON pe_b_mean                    =   2.4199675065562E-07
(PID.TID 0000.0001) %MON ke_max                       =   2.0727828950959E-04
(PID.TID 0000.0001) %MON ke_mean                      =   3.3908905472590E-05
(PID.TID 0000.0001) %MON ke_vol                       =   7.2529629296391E+15
(PID.TID 0000.0001) %MON vort_r_min                   =  -6.6916721888965E-07
(PID.TID 0000.0001) %MON vort_r_max                   =   1.2370444637339E-06
(PID.TID 0000.0001) %MON vort_a_mean                  =   1.0615000000000E-04
(PID.TID 0000.0001) %MON vort_a_sd                    =   3.5671008303160E-06
(PID.TID 0000.0001) %MON vort_p_mean                  =   1.1210870169429E-04
(PID.TID 0000.0001) %MON vort_p_sd                    =   2.1049899617726E-05
(PID.TID 0000.0001) %MON surfExpan_theta_mean         =  -3.1305604622664E-20
(PID.TID 0000.0001) %MON surfExpan_salt_mean          =  -4.6643117391151E-20
(PID.TID 0000.0001) // =======================================================
(PID.TID 0000.0001) // End MONITOR dynamic field statistics
(PID.TID 0000.0001) // =======================================================
 cg2d: Sum(rhs),rhsMax =   1.03038531757832E-05  3.87575399531991E-03
 cg2d: Sum(rhs),rhsMax =   1.03079466580516E-05  3.88010957677635E-03
 cg2d: Sum(rhs),rhsMax =   1.03120127180160E-05  3.88445654672980E-03
 cg2d: Sum(rhs),rhsMax =   1.03160503959615E-05  3.88879488687720E-03
 cg2d: Sum(rhs),rhsMax =   1.03200753071887E-05  3.89312457738090E-03
 cg2d: Sum(rhs),rhsMax =   1.03239929829316E-05  3.89747763745503E-03
 cg2d: Sum(rhs),rhsMax =   1.03278638907169E-05  3.90183067261323E-03
 cg2d: Sum(rhs),rhsMax =   1.03317087468170E-05  3.90617504252878E-03
 cg2d: Sum(rhs),rhsMax =   1.03355545526436E-05  3.91051073020768E-03
 cg2d: Sum(rhs),rhsMax =   1.03393798101294E-05  3.91483771436538E-03
 cg2d: Sum(rhs),rhsMax =   1.03431693608998E-05  3.91915597806626E-03
 cg2d: Sum(rhs),rhsMax =   1.03469600117728E-05  3.92346550016560E-03
 cg2d: Sum(rhs),rhsMax =   1.03507344911304E-05  3.92776626378670E-03
 cg2d: Sum(rhs),rhsMax =   1.03545050141839E-05  3.93205824792576E-03
 cg2d: Sum(rhs),rhsMax =   1.03582515065780E-05  3.93634143576629E-03
 cg2d: Sum(rhs),rhsMax =   1.03620029892407E-05  3.94061580644450E-03
 cg2d: Sum(rhs),rhsMax =   1.03657290538607E-05  3.94488134320601E-03
 cg2d: Sum(rhs),rhsMax =   1.03694467876725E-05  3.94913802532734E-03
 cg2d: Sum(rhs),rhsMax =   1.03731566691891E-05  3.95338583611626E-03
 cg2d: Sum(rhs),rhsMax =   1.03768547585620E-05  3.95762475499084E-03
 cg2d: Sum(rhs),rhsMax =   1.03805542758899E-05  3.96185476532201E-03
 cg2d: Sum(rhs),rhsMax =   1.03842370780781E-05  3.96607584666918E-03
 cg2d: Sum(rhs),rhsMax =   1.03879230301217E-05  3.97028798246777E-03
 cg2d: Sum(rhs),rhsMax =   1.03915979897534E-05  3.97449115241904E-03
 cg2d: Sum(rhs),rhsMax =   1.03952838388030E-05  3.97868534002313E-03
 cg2d: Sum(rhs),rhsMax =   1.03989554736360E-05  3.98287052512432E-03
 cg2d: Sum(rhs),rhsMax =   1.04026337943673E-05  3.98704669128796E-03
 cg2d: Sum(rhs),rhsMax =   1.04063010338794E-05  3.99121381850113E-03
 cg2d: Sum(rhs),rhsMax =   1.04099740472000E-05  3.99537189039664E-03
 cg2d: Sum(rhs),rhsMax =   1.04136516001462E-05  3.99952088710403E-03
 cg2d: Sum(rhs),rhsMax =   1.04173373373199E-05  4.00366079232366E-03
 cg2d: Sum(rhs),rhsMax =   1.04210150682349E-05  4.00779158632966E-03
 cg2d: Sum(rhs),rhsMax =   1.04246904402520E-05  4.01191325288933E-03
 cg2d: Sum(rhs),rhsMax =   1.04283811289442E-05  4.01602577242139E-03
 cg2d: Sum(rhs),rhsMax =   1.04320762358764E-05  4.02012912876307E-03
 cg2d: Sum(rhs),rhsMax =   1.04357671858318E-05  4.02422330247711E-03
 cg2d: Sum(rhs),rhsMax =   1.04394691834882E-05  4.02830827746988E-03
 cg2d: Sum(rhs),rhsMax =   1.04431778513922E-05  4.03238403444992E-03
 cg2d: Sum(rhs),rhsMax =   1.04468951968514E-05  4.03645055739417E-03
 cg2d: Sum(rhs),rhsMax =   1.04506239197930E-05  4.04050782715630E-03
 cg2d: Sum(rhs),rhsMax =   1.04543578138307E-05  4.04455582778513E-03
 cg2d: Sum(rhs),rhsMax =   1.04581013232082E-05  4.04859454027984E-03
 cg2d: Sum(rhs),rhsMax =   1.04618659929057E-05  4.05262394876123E-03
 cg2d: Sum(rhs),rhsMax =   1.04656367687708E-05  4.05664403437575E-03
 cg2d: Sum(rhs),rhsMax =   1.04694143671126E-05  4.06065478131587E-03
 cg2d: Sum(rhs),rhsMax =   1.04731335684970E-05  4.06468806662218E-03
 cg2d: Sum(rhs),rhsMax =   1.04768309285193E-05  4.06872151156609E-03
 cg2d: Sum(rhs),rhsMax =   1.04805484164514E-05  4.07274559706133E-03
 cg2d: Sum(rhs),rhsMax =   1.04842843502533E-05  4.07676030921668E-03
 cg2d: Sum(rhs),rhsMax =   1.04880182865662E-05  4.08076562716241E-03
 cg2d: Sum(rhs),rhsMax =   1.04917919555199E-05  4.08476153711355E-03
 cg2d: Sum(rhs),rhsMax =   1.04955712038717E-05  4.08874801831792E-03
 cg2d: Sum(rhs),rhsMax =   1.04993733714594E-05  4.09272505709673E-03
 cg2d: Sum(rhs),rhsMax =   1.05032003875419E-05  4.09669263281586E-03
 cg2d: Sum(rhs),rhsMax =   1.05070319171147E-05  4.10065073190294E-03
 cg2d: Sum(rhs),rhsMax =   1.05108918987823E-05  4.10459933384317E-03
 cg2d: Sum(rhs),rhsMax =   1.05147556805178E-05  4.10853842517143E-03
 cg2d: Sum(rhs),rhsMax =   1.05186560001511E-05  4.11246798549195E-03
 cg2d: Sum(rhs),rhsMax =   1.05225916150233E-05  4.11638800144688E-03
 cg2d: Sum(rhs),rhsMax =   1.05265344559798E-05  4.12029845276155E-03
 cg2d: Sum(rhs),rhsMax =   1.05305024659455E-05  4.12419932618603E-03
 cg2d: Sum(rhs),rhsMax =   1.05344849721800E-05  4.12809060156637E-03
 cg2d: Sum(rhs),rhsMax =   1.05385009360505E-05  4.13197226576048E-03
 cg2d: Sum(rhs),rhsMax =   1.05425421879461E-05  4.13584429873652E-03
 cg2d: Sum(rhs),rhsMax =   1.05465945826229E-05  4.13970668746081E-03
 cg2d: Sum(rhs),rhsMax =   1.05506828561759E-05  4.14355941202537E-03
 cg2d: Sum(rhs),rhsMax =   1.05547944065296E-05  4.14740245950371E-03
 cg2d: Sum(rhs),rhsMax =   1.05589390848836E-05  4.15123581011214E-03
 cg2d: Sum(rhs),rhsMax =   1.05631058745677E-05  4.15505945103311E-03
 cg2d: Sum(rhs),rhsMax =   1.05672985081864E-05  4.15887336260733E-03
 cg2d: Sum(rhs),rhsMax =   1.05715167171075E-05  4.16267753212584E-03
 cg2d: Sum(rhs),rhsMax =   1.05757787733016E-05  4.16647194005573E-03
(PID.TID 0000.0001)      cg2d_init_res =   2.85546231648659E-02
(PID.TID 0000.0001)      cg2d_iters(min,last) =      -1     399
(PID.TID 0000.0001)      cg2d_last_res =   9.49476097143805E-08
(PID.TID 0000.0001) // =======================================================
(PID.TID 0000.0001) // Begin MONITOR dynamic field statistics
(PID.TID 0000.0001) // =======================================================
(PID.TID 0000.0001) %MON time_tsnumber                =                   720
(PID.TID 0000.0001) %MON time_secondsf                =   8.6400000000000E+05
(PID.TID 0000.0001) %MON dynstat_eta_max              =   3.4029572681713E-02
(PID.TID 0000.0001) %MON dynstat_eta_min              =  -3.5214316488884E-02
(PID.TID 0000.0001) %MON dynstat_eta_mean             =  -2.0996492039982E-10
(PID.TID 0000.0001) %MON dynstat_eta_sd               =   1.6653751758861E-02
(PID.TID 0000.0001) %MON dynstat_eta_del2             =   1.0937712506172E-07
(PID.TID 0000.0001) %MON dynstat_uvel_max             =   1.2054078537592E-02
(PID.TID 0000.0001) %MON dynstat_uvel_min             =  -1.4224116412795E-02
(PID.TID 0000.0001) %MON dynstat_uvel_mean            =  -6.6551749099423E-07
(PID.TID 0000.0001) %MON dynstat_uvel_sd              =   6.7833248575560E-03
(PID.TID 0000.0001) %MON dynstat_uvel_del2            =   3.0963093005141E-07
(PID.TID 0000.0001) %MON dynstat_vvel_max             =   2.2679211900801E-02
(PID.TID 0000.0001) %MON dynstat_vvel_min             =  -1.1236452832078E-02
(PID.TID 0000.0001) %MON dynstat_vvel_mean            =  -2.3966175779172E-07
(PID.TID 0000.0001) %MON dynstat_vvel_sd              =   5.8888569614839E-03
(PID.TID 0000.0001) %MON dynstat_vvel_del2            =   5.2039413050154E-07
(PID.TID 0000.0001) %MON dynstat_wvel_max             =   4.2790758814081E-08
(PID.TID 0000.0001) %MON dynstat_wvel_min             =  -4.5462350032176E-08
(PID.TID 0000.0001) %MON dynstat_wvel_mean            =   1.1685656412232E-21
(PID.TID 0000.0001) %MON dynstat_wvel_sd              =   1.9097806875665E-08
(PID.TID 0000.0001) %MON dynstat_wvel_del2            =   1.3019996066654E-13
(PID.TID 0000.0001) %MON dynstat_theta_max            =   2.0000000000000E+01
(PID.TID 0000.0001) %MON dynstat_theta_min            =   2.0000000000000E+01
(PID.TID 0000.0001) %MON dynstat_theta_mean           =   1.9999999999999E+01
(PID.TID 0000.0001) %MON dynstat_theta_sd             =   1.1972645097557E-12
(PID.TID 0000.0001) %MON dynstat_theta_del2           =   0.0000000000000E+00
(PID.TID 0000.0001) %MON dynstat_salt_max             =   3.0000000000000E+01
(PID.TID 0000.0001) %MON dynstat_salt_min             =   3.0000000000000E+01
(PID.TID 0000.0001) %MON dynstat_salt_mean            =   2.9999999999998E+01
(PID.TID 0000.0001) %MON dynstat_salt_sd              =   2.1529444893531E-12
(PID.TID 0000.0001) %MON dynstat_salt_del2            =   0.0000000000000E+00
(PID.TID 0000.0001) %MON trAdv_CFL_u_max              =   3.4098154910523E-03
(PID.TID 0000.0001) %MON trAdv_CFL_v_max              =   5.4352257771659E-03
(PID.TID 0000.0001) %MON trAdv_CFL_w_max              =   1.0774231097220E-08
(PID.TID 0000.0001) %MON advcfl_uvel_max              =   3.4137879390709E-03
(PID.TID 0000.0001) %MON advcfl_vvel_max              =   5.4430108561924E-03
(PID.TID 0000.0001) %MON advcfl_wvel_max              =   2.1821928015444E-08
(PID.TID 0000.0001) %MON advcfl_W_hf_max              =   0.0000000000000E+00
(PID.TID 0000.0001) %MON pe_b_mean                    =   2.8376442663444E-07
(PID.TID 0000.0001) %MON ke_max                       =   2.5712429873298E-04
(PID.TID 0000.0001) %MON ke_mean                      =   4.0164453468451E-05
(PID.TID 0000.0001) %MON ke_vol                       =   7.2529629296391E+15
(PID.TID 0000.0001) %MON vort_r_min                   =  -6.8948681072383E-07
(PID.TID 0000.0001) %MON vort_r_max                   =   1.3465055863998E-06
(PID.TID 0000.0001) %MON vort_a_mean                  =   1.0615000000000E-04
(PID.TID 0000.0001) %MON vort_a_sd                    =   3.5674120063079E-06
(PID.TID 0000.0001) %MON vort_p_mean                  =   1.1210870169429E-04
(PID.TID 0000.0001) %MON vort_p_sd                    =   2.1050248827198E-05
(PID.TID 0000.0001) %MON surfExpan_theta_mean         =   2.3204374798425E-20
(PID.TID 0000.0001) %MON surfExpan_salt_mean          =   3.4890649428393E-20
(PID.TID 0000.0001) // =======================================================
(PID.TID 0000.0001) // End MONITOR dynamic field statistics
(PID.TID 0000.0001) // =======================================================
 cg2d: Sum(rhs),rhsMax =   1.05800612031394E-05  4.17025657379670E-03
 cg2d: Sum(rhs),rhsMax =   1.05843589870286E-05  4.17403141394219E-03
 cg2d: Sum(rhs),rhsMax =   1.05886921186148E-05  4.17779644800083E-03
 cg2d: Sum(rhs),rhsMax =   1.05930641628553E-05  4.18155165669479E-03
 cg2d: Sum(rhs),rhsMax =   1.05974720819475E-05  4.18529702764081E-03
 cg2d: Sum(rhs),rhsMax =   1.06018961125928E-05  4.18903254168943E-03
 cg2d: Sum(rhs),rhsMax =   1.06063557574268E-05  4.19275818656737E-03
 cg2d: Sum(rhs),rhsMax =   1.06108512795793E-05  4.19647394325437E-03
 cg2d: Sum(rhs),rhsMax =   1.06153811535933E-05  4.20017979958624E-03
 cg2d: Sum(rhs),rhsMax =   1.06199478626286E-05  4.20387573667372E-03
 cg2d: Sum(rhs),rhsMax =   1.06245350965511E-05  4.20756174246082E-03
 cg2d: Sum(rhs),rhsMax =   1.06291641241811E-05  4.21123779819098E-03
 cg2d: Sum(rhs),rhsMax =   1.06338248806077E-05  4.21490389191707E-03
 cg2d: Sum(rhs),rhsMax =   1.06384663087870E-05  4.21858499186175E-03
 cg2d: Sum(rhs),rhsMax =   1.06430904198949E-05  4.22227309386100E-03
 cg2d: Sum(rhs),rhsMax =   1.06477558481921E-05  4.22595120952774E-03
 cg2d: Sum(rhs),rhsMax =   1.06524451401885E-05  4.22961932694354E-03
 cg2d: Sum(rhs),rhsMax =   1.06571733314055E-05  4.23327742724765E-03
 cg2d: Sum(rhs),rhsMax =   1.06619336488756E-05  4.23692549867072E-03
 cg2d: Sum(rhs),rhsMax =   1.06667414254587E-05  4.24056352244843E-03
 cg2d: Sum(rhs),rhsMax =   1.06715853097385E-05  4.24419148695855E-03
 cg2d: Sum(rhs),rhsMax =   1.06764601291096E-05  4.24780937353573E-03
 cg2d: Sum(rhs),rhsMax =   1.06813817356312E-05  4.25141717070512E-03
 cg2d: Sum(rhs),rhsMax =   1.06863277057924E-05  4.25501485990007E-03
 cg2d: Sum(rhs),rhsMax =   1.06913107395627E-05  4.25860242979386E-03
 cg2d: Sum(rhs),rhsMax =   1.06963438243277E-05  4.26217986191975E-03
 cg2d: Sum(rhs),rhsMax =   1.07014109921449E-05  4.26574714509878E-03
 cg2d: Sum(rhs),rhsMax =   1.07065230229332E-05  4.26930426096433E-03
 cg2d: Sum(rhs),rhsMax =   1.07116583817624E-05  4.27285119848638E-03
 cg2d: Sum(rhs),rhsMax =   1.07168461320299E-05  4.27638793939947E-03
 cg2d: Sum(rhs),rhsMax =   1.07220606899681E-05  4.27991447282127E-03
 cg2d: Sum(rhs),rhsMax =   1.07273264810422E-05  4.28343078058923E-03
 cg2d: Sum(rhs),rhsMax =   1.07326272105537E-05  4.28693685196919E-03
 cg2d: Sum(rhs),rhsMax =   1.07379632478845E-05  4.29043266890201E-03
 cg2d: Sum(rhs),rhsMax =   1.07433386086660E-05  4.29391822080086E-03
 cg2d: Sum(rhs),rhsMax =   1.07487598661853E-05  4.29739348971161E-03
 cg2d: Sum(rhs),rhsMax =   1.07542295479483E-05  4.30085846519506E-03
 cg2d: Sum(rhs),rhsMax =   1.07597120680737E-05  4.30431312940320E-03
 cg2d: Sum(rhs),rhsMax =   1.07652555040964E-05  4.30775747204388E-03
 cg2d: Sum(rhs),rhsMax =   1.07708329292015E-05  4.31119147537493E-03
 cg2d: Sum(rhs),rhsMax =   1.07764453240282E-05  4.31461512925387E-03
 cg2d: Sum(rhs),rhsMax =   1.07821069667870E-05  4.31802841604469E-03
 cg2d: Sum(rhs),rhsMax =   1.07878045013110E-05  4.32143132575245E-03
 cg2d: Sum(rhs),rhsMax =   1.07935422396302E-05  4.32482384084945E-03
 cg2d: Sum(rhs),rhsMax =   1.07993208346112E-05  4.32820595148855E-03
 cg2d: Sum(rhs),rhsMax =   1.08051401297923E-05  4.33157764025210E-03
 cg2d: Sum(rhs),rhsMax =   1.08109932947693E-05  4.33493889743946E-03
 cg2d: Sum(rhs),rhsMax =   1.08168924195934E-05  4.33828970574355E-03
 cg2d: Sum(rhs),rhsMax =   1.08228261528204E-05  4.34163005561060E-03
 cg2d: Sum(rhs),rhsMax =   1.08288009177844E-05  4.34495992984626E-03
 cg2d: Sum(rhs),rhsMax =   1.08348152604368E-05  4.34827931904290E-03
 cg2d: Sum(rhs),rhsMax =   1.08408719579935E-05  4.35158820611868E-03
 cg2d: Sum(rhs),rhsMax =   1.08469571874839E-05  4.35488658181210E-03
 cg2d: Sum(rhs),rhsMax =   1.08530707875580E-05  4.35818529039000E-03
 cg2d: Sum(rhs),rhsMax =   1.08591259612087E-05  4.36150496126903E-03
 cg2d: Sum(rhs),rhsMax =   1.08652315102299E-05  4.36481409495675E-03
 cg2d: Sum(rhs),rhsMax =   1.08713701643705E-05  4.36811268012816E-03
 cg2d: Sum(rhs),rhsMax =   1.08775448116570E-05  4.37140070171207E-03
 cg2d: Sum(rhs),rhsMax =   1.08837589454479E-05  4.37467814855951E-03
 cg2d: Sum(rhs),rhsMax =   1.08899981118536E-05  4.37794500568504E-03
 cg2d: Sum(rhs),rhsMax =   1.08962756837812E-05  4.38120126211654E-03
 cg2d: Sum(rhs),rhsMax =   1.09026017463230E-05  4.38444690295551E-03
 cg2d: Sum(rhs),rhsMax =   1.09089608285109E-05  4.38768191740671E-03
 cg2d: Sum(rhs),rhsMax =   1.09153458349165E-05  4.39090629065976E-03
 cg2d: Sum(rhs),rhsMax =   1.09217689292437E-05  4.39412001209497E-03
 cg2d: Sum(rhs),rhsMax =   1.09282126292409E-05  4.39732306699167E-03
 cg2d: Sum(rhs),rhsMax =   1.09347135356964E-05  4.40051544490607E-03
 cg2d: Sum(rhs),rhsMax =   1.09412315386810E-05  4.40369713120702E-03
 cg2d: Sum(rhs),rhsMax =   1.09477829125411E-05  4.40686811562749E-03
 cg2d: Sum(rhs),rhsMax =   1.09543710946763E-05  4.41002838362673E-03
 cg2d: Sum(rhs),rhsMax =   1.09609831915082E-05  4.41317792511381E-03
 cg2d: Sum(rhs),rhsMax =   1.09676257239524E-05  4.41631672563858E-03
(PID.TID 0000.0001)      cg2d_init_res =   2.60057471641575E-02
(PID.TID 0000.0001)      cg2d_iters(min,last) =      -1     399
(PID.TID 0000.0001)      cg2d_last_res =   9.61947372763502E-08
(PID.TID 0000.0001) // =======================================================
(PID.TID 0000.0001) // Begin MONITOR dynamic field statistics
(PID.TID 0000.0001) // =======================================================
(PID.TID 0000.0001) %MON time_tsnumber                =                   792
(PID.TID 0000.0001) %MON time_secondsf                =   9.5040000000000E+05
(PID.TID 0000.0001) %MON dynstat_eta_max              =   3.6618632008316E-02
(PID.TID 0000.0001) %MON dynstat_eta_min              =  -3.8330008325904E-02
(PID.TID 0000.0001) %MON dynstat_eta_mean             =  -2.3080244291141E-10
(PID.TID 0000.0001) %MON dynstat_eta_sd               =   1.7826787829754E-02
(PID.TID 0000.0001) %MON dynstat_eta_del2             =   1.1779869302722E-07
(PID.TID 0000.0001) %MON dynstat_uvel_max             =   1.2698517067594E-02
(PID.TID 0000.0001) %MON dynstat_uvel_min             =  -1.5380838737037E-02
(PID.TID 0000.0001) %MON dynstat_uvel_mean            =  -5.9910473796123E-07
(PID.TID 0000.0001) %MON dynstat_uvel_sd              =   7.1183250067290E-03
(PID.TID 0000.0001) %MON dynstat_uvel_del2            =   3.0530727255620E-07
(PID.TID 0000.0001) %MON dynstat_vvel_max             =   2.4862818089168E-02
(PID.TID 0000.0001) %MON dynstat_vvel_min             =  -1.2941513271795E-02
(PID.TID 0000.0001) %MON dynstat_vvel_mean            =  -1.2882738714339E-07
(PID.TID 0000.0001) %MON dynstat_vvel_sd              =   6.5396731860379E-03
(PID.TID 0000.0001) %MON dynstat_vvel_del2            =   5.4241398892775E-07
(PID.TID 0000.0001) %MON dynstat_wvel_max             =   4.1358996856725E-08
(PID.TID 0000.0001) %MON dynstat_wvel_min             =  -4.5700488228467E-08
(PID.TID 0000.0001) %MON dynstat_wvel_mean            =   8.3489287134226E-23
(PID.TID 0000.0001) %MON dynstat_wvel_sd              =   1.8795922136513E-08
(PID.TID 0000.0001) %MON dynstat_wvel_del2            =   1.2649098357879E-13
(PID.TID 0000.0001) %MON dynstat_theta_max            =   2.0000000000000E+01
(PID.TID 0000.0001) %MON dynstat_theta_min            =   2.0000000000000E+01
(PID.TID 0000.0001) %MON dynstat_theta_mean           =   1.9999999999999E+01
(PID.TID 0000.0001) %MON dynstat_theta_sd             =   1.1972645097557E-12
(PID.TID 0000.0001) %MON dynstat_theta_del2           =   0.0000000000000E+00
(PID.TID 0000.0001) %MON dynstat_salt_max             =   3.0000000000000E+01
(PID.TID 0000.0001) %MON dynstat_salt_min             =   3.0000000000000E+01
(PID.TID 0000.0001) %MON dynstat_salt_mean            =   2.9999999999998E+01
(PID.TID 0000.0001) %MON dynstat_salt_sd              =   2.1529444893531E-12
(PID.TID 0000.0001) %MON dynstat_salt_del2            =   0.0000000000000E+00
(PID.TID 0000.0001) %MON trAdv_CFL_u_max              =   3.6875464114973E-03
(PID.TID 0000.0001) %MON trAdv_CFL_v_max              =   5.9596895432191E-03
(PID.TID 0000.0001) %MON trAdv_CFL_w_max              =   1.0396959651178E-08
(PID.TID 0000.0001) %MON advcfl_uvel_max              =   3.6914012968889E-03
(PID.TID 0000.0001) %MON advcfl_vvel_max              =   5.9670763414003E-03
(PID.TID 0000.0001) %MON advcfl_wvel_max              =   2.1936234349664E-08
(PID.TID 0000.0001) %MON advcfl_W_hf_max              =   0.0000000000000E+00
(PID.TID 0000.0001) %MON pe_b_mean                    =   3.2514716232797E-07
(PID.TID 0000.0001) %MON ke_max                       =   3.0903097572071E-04
(PID.TID 0000.0001) %MON ke_mean                      =   4.6508638607291E-05
(PID.TID 0000.0001) %MON ke_vol                       =   7.2529629296391E+15
(PID.TID 0000.0001) %MON vort_r_min                   =  -7.1622297175319E-07
(PID.TID 0000.0001) %MON vort_r_max                   =   1.4422288663861E-06
(PID.TID 0000.0001) %MON vort_a_mean                  =   1.0615000000000E-04
(PID.TID 0000.0001) %MON vort_a_sd                    =   3.5677139263769E-06
(PID.TID 0000.0001) %MON vort_p_mean                  =   1.1210870169429E-04
(PID.TID 0000.0001) %MON vort_p_sd                    =   2.1050644159565E-05
(PID.TID 0000.0001) %MON surfExpan_theta_mean         =   1.4201649455356E-21
(PID.TID 0000.0001) %MON surfExpan_salt_mean          =   2.1484325030603E-21
(PID.TID 0000.0001) // =======================================================
(PID.TID 0000.0001) // End MONITOR dynamic field statistics
(PID.TID 0000.0001) // =======================================================
 cg2d: Sum(rhs),rhsMax =   1.09742988958911E-05  4.41944477528732E-03
 cg2d: Sum(rhs),rhsMax =   1.09809934826094E-05  4.42256205970264E-03
 cg2d: Sum(rhs),rhsMax =   1.09877068493261E-05  4.42566856914530E-03
 cg2d: Sum(rhs),rhsMax =   1.09944495851784E-05  4.42876428935242E-03
 cg2d: Sum(rhs),rhsMax =   1.10011951160137E-05  4.43184921075877E-03
 cg2d: Sum(rhs),rhsMax =   1.10079749013267E-05  4.43492331919743E-03
 cg2d: Sum(rhs),rhsMax =   1.10147668415383E-05  4.43798660527774E-03
 cg2d: Sum(rhs),rhsMax =   1.10215801430794E-05  4.44103905492958E-03
 cg2d: Sum(rhs),rhsMax =   1.10283948799826E-05  4.44408065893429E-03
 cg2d: Sum(rhs),rhsMax =   1.10352297997759E-05  4.44711140332112E-03
 cg2d: Sum(rhs),rhsMax =   1.10420664195289E-05  4.45013127904423E-03
 cg2d: Sum(rhs),rhsMax =   1.10489088636298E-05  4.45314027223228E-03
 cg2d: Sum(rhs),rhsMax =   1.10557529409486E-05  4.45613837401054E-03
 cg2d: Sum(rhs),rhsMax =   1.10625977796132E-05  4.45912557061116E-03
 cg2d: Sum(rhs),rhsMax =   1.10694380974809E-05  4.46210185332771E-03
 cg2d: Sum(rhs),rhsMax =   1.10762564513971E-05  4.46506720849752E-03
 cg2d: Sum(rhs),rhsMax =   1.10830605323277E-05  4.46802162758218E-03
 cg2d: Sum(rhs),rhsMax =   1.10898302893847E-05  4.47096509702622E-03
 cg2d: Sum(rhs),rhsMax =   1.10965844654261E-05  4.47389760845595E-03
 cg2d: Sum(rhs),rhsMax =   1.11048817924737E-05  4.47681914878385E-03
 cg2d: Sum(rhs),rhsMax =   1.11131385932273E-05  4.47972970836905E-03
 cg2d: Sum(rhs),rhsMax =   1.11213248097201E-05  4.48262927625683E-03
 cg2d: Sum(rhs),rhsMax =   1.11308764492342E-05  4.48554909453449E-03
 cg2d: Sum(rhs),rhsMax =   1.11402849791893E-05  4.48846922371837E-03
 cg2d: Sum(rhs),rhsMax =   1.11495623654929E-05  4.49137833512331E-03
 cg2d: Sum(rhs),rhsMax =   1.11587060944475E-05  4.49427642032487E-03
 cg2d: Sum(rhs),rhsMax =   1.11694395889018E-05  4.49716346824833E-03
 cg2d: Sum(rhs),rhsMax =   1.11799482325724E-05  4.50003946759809E-03
 cg2d: Sum(rhs),rhsMax =   1.11902109922284E-05  4.50290440670009E-03
 cg2d: Sum(rhs),rhsMax =   1.12002047667932E-05  4.50575827678395E-03
 cg2d: Sum(rhs),rhsMax =   1.12114133237855E-05  4.50860106897342E-03
 cg2d: Sum(rhs),rhsMax =   1.12240088495016E-05  4.51143276598349E-03
 cg2d: Sum(rhs),rhsMax =   1.12360982079604E-05  4.51425336548911E-03
 cg2d: Sum(rhs),rhsMax =   1.12476358814818E-05  4.51706285316707E-03
 cg2d: Sum(rhs),rhsMax =   1.12618812036537E-05  4.51986121962533E-03
 cg2d: Sum(rhs),rhsMax =   1.12752911582831E-05  4.52264845528820E-03
 cg2d: Sum(rhs),rhsMax =   1.12877733281398E-05  4.52542454973529E-03
 cg2d: Sum(rhs),rhsMax =   1.13024838943356E-05  4.52818949312702E-03
 cg2d: Sum(rhs),rhsMax =   1.13193321087078E-05  4.53094327495647E-03
 cg2d: Sum(rhs),rhsMax =   1.13346087060526E-05  4.53368588636925E-03
 cg2d: Sum(rhs),rhsMax =   1.13515299916302E-05  4.53641731827739E-03
 cg2d: Sum(rhs),rhsMax =   1.13698668874583E-05  4.53913755728286E-03
 cg2d: Sum(rhs),rhsMax =   1.13876975500506E-05  4.54184660058421E-03
 cg2d: Sum(rhs),rhsMax =   1.14068253170493E-05  4.54454442897136E-03
 cg2d: Sum(rhs),rhsMax =   1.14242000057198E-05  4.54723104046849E-03
 cg2d: Sum(rhs),rhsMax =   1.14434177340729E-05  4.54990642691789E-03
 cg2d: Sum(rhs),rhsMax =   1.14617275044915E-05  4.55257057278275E-03
 cg2d: Sum(rhs),rhsMax =   1.14797217791208E-05  4.55522347271542E-03
 cg2d: Sum(rhs),rhsMax =   1.14980156656307E-05  4.55786511587734E-03
 cg2d: Sum(rhs),rhsMax =   1.15172200504804E-05  4.56049549468997E-03
 cg2d: Sum(rhs),rhsMax =   1.15346103207840E-05  4.56311459671778E-03
 cg2d: Sum(rhs),rhsMax =   1.15537397460952E-05  4.56572241805524E-03
 cg2d: Sum(rhs),rhsMax =   1.15734140550931E-05  4.56831895030310E-03
 cg2d: Sum(rhs),rhsMax =   1.15918925894104E-05  4.57090417620100E-03
 cg2d: Sum(rhs),rhsMax =   1.16090480544312E-05  4.57347809585263E-03
 cg2d: Sum(rhs),rhsMax =   1.16281199144877E-05  4.57604069672261E-03
 cg2d: Sum(rhs),rhsMax =   1.16453783785865E-05  4.57859196834281E-03
 cg2d: Sum(rhs),rhsMax =   1.16606217796730E-05  4.58113190710628E-03
 cg2d: Sum(rhs),rhsMax =   1.16737695865614E-05  4.58366050062771E-03
 cg2d: Sum(rhs),rhsMax =   1.16879113089240E-05  4.58617774270335E-03
 cg2d: Sum(rhs),rhsMax =   1.17030046252742E-05  4.58868362313667E-03
 cg2d: Sum(rhs),rhsMax =   1.17154917382567E-05  4.59117813674081E-03
 cg2d: Sum(rhs),rhsMax =   1.17286326201220E-05  4.59366194928306E-03
 cg2d: Sum(rhs),rhsMax =   1.17422714743555E-05  4.59617629778221E-03
 cg2d: Sum(rhs),rhsMax =   1.17530719159799E-05  4.59867925034359E-03
 cg2d: Sum(rhs),rhsMax =   1.17642936571100E-05  4.60117080134117E-03
 cg2d: Sum(rhs),rhsMax =   1.17758732315239E-05  4.60365094068194E-03
 cg2d: Sum(rhs),rhsMax =   1.17860787928366E-05  4.60611965906317E-03
 cg2d: Sum(rhs),rhsMax =   1.17965702187382E-05  4.60857695306397E-03
 cg2d: Sum(rhs),rhsMax =   1.18072981952731E-05  4.61102280989185E-03
 cg2d: Sum(rhs),rhsMax =   1.18182650364132E-05  4.61345722468058E-03
 cg2d: Sum(rhs),rhsMax =   1.18279192964435E-05  4.61588019051355E-03
(PID.TID 0000.0001)      cg2d_init_res =   2.39331284249444E-02
(PID.TID 0000.0001)      cg2d_iters(min,last) =      -1     398
(PID.TID 0000.0001)      cg2d_last_res =   9.97380521670206E-08
(PID.TID 0000.0001) // =======================================================
(PID.TID 0000.0001) // Begin MONITOR dynamic field statistics
(PID.TID 0000.0001) // =======================================================
(PID.TID 0000.0001) %MON time_tsnumber                =                   864
(PID.TID 0000.0001) %MON time_secondsf                =   1.0368000000000E+06
(PID.TID 0000.0001) %MON dynstat_eta_max              =   3.8896448287136E-02
(PID.TID 0000.0001) %MON dynstat_eta_min              =  -4.1300770071126E-02
(PID.TID 0000.0001) %MON dynstat_eta_mean             =  -2.6016398884713E-10
(PID.TID 0000.0001) %MON dynstat_eta_sd               =   1.8900559536369E-02
(PID.TID 0000.0001) %MON dynstat_eta_del2             =   1.2560013626662E-07
(PID.TID 0000.0001) %MON dynstat_uvel_max             =   1.3373257350857E-02
(PID.TID 0000.0001) %MON dynstat_uvel_min             =  -1.6486088384306E-02
(PID.TID 0000.0001) %MON dynstat_uvel_mean            =  -5.1334387256457E-07
(PID.TID 0000.0001) %MON dynstat_uvel_sd              =   7.4065098909377E-03
(PID.TID 0000.0001) %MON dynstat_uvel_del2            =   3.0128860547129E-07
(PID.TID 0000.0001) %MON dynstat_vvel_max             =   2.6845136249128E-02
(PID.TID 0000.0001) %MON dynstat_vvel_min             =  -1.4605783449608E-02
(PID.TID 0000.0001) %MON dynstat_vvel_mean            =  -3.1979818144361E-08
(PID.TID 0000.0001) %MON dynstat_vvel_sd              =   7.1632033919976E-03
(PID.TID 0000.0001) %MON dynstat_vvel_del2            =   5.5922758785908E-07
(PID.TID 0000.0001) %MON dynstat_wvel_max             =   3.9686468858272E-08
(PID.TID 0000.0001) %MON dynstat_wvel_min             =  -4.5867184831295E-08
(PID.TID 0000.0001) %MON dynstat_wvel_mean            =  -3.0496862053492E-22
(PID.TID 0000.0001) %MON dynstat_wvel_sd              =   1.8544347610462E-08
(PID.TID 0000.0001) %MON dynstat_wvel_del2            =   1.2225988366501E-13
(PID.TID 0000.0001) %MON dynstat_theta_max            =   2.0000000000000E+01
(PID.TID 0000.0001) %MON dynstat_theta_min            =   2.0000000000000E+01
(PID.TID 0000.0001) %MON dynstat_theta_mean           =   1.9999999999999E+01
(PID.TID 0000.0001) %MON dynstat_theta_sd             =   1.1972645097557E-12
(PID.TID 0000.0001) %MON dynstat_theta_del2           =   0.0000000000000E+00
(PID.TID 0000.0001) %MON dynstat_salt_max             =   3.0000000000000E+01
(PID.TID 0000.0001) %MON dynstat_salt_min             =   3.0000000000000E+01
(PID.TID 0000.0001) %MON dynstat_salt_mean            =   2.9999999999998E+01
(PID.TID 0000.0001) %MON dynstat_salt_sd              =   2.1529444893531E-12
(PID.TID 0000.0001) %MON dynstat_salt_del2            =   0.0000000000000E+00
(PID.TID 0000.0001) %MON trAdv_CFL_u_max              =   3.9529997142094E-03
(PID.TID 0000.0001) %MON trAdv_CFL_v_max              =   6.4362224850867E-03
(PID.TID 0000.0001) %MON trAdv_CFL_w_max              =   9.9587077165607E-09
(PID.TID 0000.0001) %MON advcfl_uvel_max              =   3.9566612122335E-03
(PID.TID 0000.0001) %MON advcfl_vvel_max              =   6.4428326997907E-03
(PID.TID 0000.0001) %MON advcfl_wvel_max              =   2.2016248719022E-08
(PID.TID 0000.0001) %MON advcfl_W_hf_max              =   0.0000000000000E+00
(PID.TID 0000.0001) %MON pe_b_mean                    =   3.6549639645048E-07
(PID.TID 0000.0001) %MON ke_max                       =   3.6025694374657E-04
(PID.TID 0000.0001) %MON ke_mean                      =   5.2844984934295E-05
(PID.TID 0000.0001) %MON ke_vol                       =   7.2529629296391E+15
(PID.TID 0000.0001) %MON vort_r_min                   =  -7.4275495793304E-07
(PID.TID 0000.0001) %MON vort_r_max                   =   1.5222400365472E-06
(PID.TID 0000.0001) %MON vort_a_mean                  =   1.0615000000000E-04
(PID.TID 0000.0001) %MON vort_a_sd                    =   3.5680007956633E-06
(PID.TID 0000.0001) %MON vort_p_mean                  =   1.1210870169429E-04
(PID.TID 0000.0001) %MON vort_p_sd                    =   2.1051073315004E-05
(PID.TID 0000.0001) %MON surfExpan_theta_mean         =  -6.2197498567111E-21
(PID.TID 0000.0001) %MON surfExpan_salt_mean          =  -9.4892327190482E-21
(PID.TID 0000.0001) // =======================================================
(PID.TID 0000.0001) // End MONITOR dynamic field statistics
(PID.TID 0000.0001) // =======================================================
 cg2d: Sum(rhs),rhsMax =   1.18377637966134E-05  4.61829169597162E-03
 cg2d: Sum(rhs),rhsMax =   1.18461533064225E-05  4.62069173175916E-03
 cg2d: Sum(rhs),rhsMax =   1.18546903040279E-05  4.62308029548930E-03
 cg2d: Sum(rhs),rhsMax =   1.18633638390084E-05  4.62545737547543E-03
 cg2d: Sum(rhs),rhsMax =   1.18721564050690E-05  4.62782296754370E-03
 cg2d: Sum(rhs),rhsMax =   1.18810740974487E-05  4.63017706156180E-03
 cg2d: Sum(rhs),rhsMax =   1.18900943565509E-05  4.63251965243013E-03
 cg2d: Sum(rhs),rhsMax =   1.18992298909354E-05  4.63485073072166E-03
 cg2d: Sum(rhs),rhsMax =   1.19084529257400E-05  4.63717029125094E-03
 cg2d: Sum(rhs),rhsMax =   1.19177949329079E-05  4.63947832496305E-03
 cg2d: Sum(rhs),rhsMax =   1.19272102611055E-05  4.64177482672894E-03
 cg2d: Sum(rhs),rhsMax =   1.19367259402876E-05  4.64405978762860E-03
 cg2d: Sum(rhs),rhsMax =   1.19463193273169E-05  4.64633320267255E-03
 cg2d: Sum(rhs),rhsMax =   1.19559913823453E-05  4.64859506310832E-03
 cg2d: Sum(rhs),rhsMax =   1.19657492842866E-05  4.65084536404893E-03
 cg2d: Sum(rhs),rhsMax =   1.19755774862090E-05  4.65308409694314E-03
 cg2d: Sum(rhs),rhsMax =   1.19854853604523E-05  4.65531125700584E-03
 cg2d: Sum(rhs),rhsMax =   1.19954642878103E-05  4.65752683586347E-03
 cg2d: Sum(rhs),rhsMax =   1.20055134399492E-05  4.65973082886706E-03
 cg2d: Sum(rhs),rhsMax =   1.20156228825066E-05  4.66192322778475E-03
 cg2d: Sum(rhs),rhsMax =   1.20258029730792E-05  4.66410402813595E-03
 cg2d: Sum(rhs),rhsMax =   1.20360491207734E-05  4.66627322180188E-03
 cg2d: Sum(rhs),rhsMax =   1.20463442390729E-05  4.66843080449309E-03
 cg2d: Sum(rhs),rhsMax =   1.20536754247592E-05  4.67057676528671E-03
 cg2d: Sum(rhs),rhsMax =   1.20610597345930E-05  4.67271110578737E-03
 cg2d: Sum(rhs),rhsMax =   1.20685034446302E-05  4.67483381548165E-03
 cg2d: Sum(rhs),rhsMax =   1.20759977526551E-05  4.67694489006978E-03
 cg2d: Sum(rhs),rhsMax =   1.20835301183134E-05  4.67904432219936E-03
 cg2d: Sum(rhs),rhsMax =   1.20911189197374E-05  4.68113210763512E-03
 cg2d: Sum(rhs),rhsMax =   1.20987576841224E-05  4.68320823921932E-03
 cg2d: Sum(rhs),rhsMax =   1.21064354585178E-05  4.68527271284506E-03
 cg2d: Sum(rhs),rhsMax =   1.21141647407702E-05  4.68732816569501E-03
 cg2d: Sum(rhs),rhsMax =   1.21218328488770E-05  4.68941173556566E-03
 cg2d: Sum(rhs),rhsMax =   1.21295498037716E-05  4.69148361903371E-03
 cg2d: Sum(rhs),rhsMax =   1.21373047385041E-05  4.69354381201926E-03
 cg2d: Sum(rhs),rhsMax =   1.21451146151350E-05  4.69559230742096E-03
 cg2d: Sum(rhs),rhsMax =   1.21529545176122E-05  4.69762910129771E-03
 cg2d: Sum(rhs),rhsMax =   1.21608522764896E-05  4.69965418670799E-03
 cg2d: Sum(rhs),rhsMax =   1.21687817120561E-05  4.70166755984923E-03
 cg2d: Sum(rhs),rhsMax =   1.21767579266234E-05  4.70366921394073E-03
 cg2d: Sum(rhs),rhsMax =   1.21847771276905E-05  4.70565914531834E-03
 cg2d: Sum(rhs),rhsMax =   1.21928338828181E-05  4.70763734736391E-03
 cg2d: Sum(rhs),rhsMax =   1.22009403569906E-05  4.70960381654633E-03
 cg2d: Sum(rhs),rhsMax =   1.22090811436049E-05  4.71155854641566E-03
 cg2d: Sum(rhs),rhsMax =   1.22172702305585E-05  4.71350153356974E-03
 cg2d: Sum(rhs),rhsMax =   1.22254939981421E-05  4.71543277173133E-03
 cg2d: Sum(rhs),rhsMax =   1.22337669295619E-05  4.71735225762301E-03
 cg2d: Sum(rhs),rhsMax =   1.22420732960489E-05  4.71925998514458E-03
 cg2d: Sum(rhs),rhsMax =   1.22504093223140E-05  4.72115595113667E-03
 cg2d: Sum(rhs),rhsMax =   1.22587874098051E-05  4.72304014968684E-03
 cg2d: Sum(rhs),rhsMax =   1.22672149751972E-05  4.72491257774559E-03
 cg2d: Sum(rhs),rhsMax =   1.22756779478671E-05  4.72677322959076E-03
 cg2d: Sum(rhs),rhsMax =   1.22841753854540E-05  4.72862210228292E-03
 cg2d: Sum(rhs),rhsMax =   1.22927115492680E-05  4.73045919029141E-03
 cg2d: Sum(rhs),rhsMax =   1.23012842775834E-05  4.73228449078435E-03
 cg2d: Sum(rhs),rhsMax =   1.23099007978966E-05  4.73409799842478E-03
 cg2d: Sum(rhs),rhsMax =   1.23185454426085E-05  4.73589971048687E-03
 cg2d: Sum(rhs),rhsMax =   1.23272302408710E-05  4.73768962183204E-03
 cg2d: Sum(rhs),rhsMax =   1.23359509522011E-05  4.73946772983585E-03
 cg2d: Sum(rhs),rhsMax =   1.23447190463685E-05  4.74123402955904E-03
 cg2d: Sum(rhs),rhsMax =   1.23535211012347E-05  4.74298851847783E-03
 cg2d: Sum(rhs),rhsMax =   1.23623524111334E-05  4.74473119185554E-03
 cg2d: Sum(rhs),rhsMax =   1.23712344351733E-05  4.74646204726763E-03
 cg2d: Sum(rhs),rhsMax =   1.23801397486252E-05  4.74818108017906E-03
 cg2d: Sum(rhs),rhsMax =   1.23890791996657E-05  4.74988828826556E-03
 cg2d: Sum(rhs),rhsMax =   1.23980694032265E-05  4.75158366719621E-03
 cg2d: Sum(rhs),rhsMax =   1.24070722012370E-05  4.75326721474073E-03
 cg2d: Sum(rhs),rhsMax =   1.24161291870199E-05  4.75493892677702E-03
 cg2d: Sum(rhs),rhsMax =   1.24252221420720E-05  4.75659880117190E-03
 cg2d: Sum(rhs),rhsMax =   1.24343456766561E-05  4.75824683400797E-03
 cg2d: Sum(rhs),rhsMax =   1.24435046075198E-05  4.75988302324527E-03
 cg2d: Sum(rhs),rhsMax =   1.24526961072964E-05  4.76150736517957E-03
(PID.TID 0000.0001)      cg2d_init_res =   2.22638805236278E-02
(PID.TID 0000.0001)      cg2d_iters(min,last) =      -1     401
(PID.TID 0000.0001)      cg2d_last_res =   9.49133637104425E-08
(PID.TID 0000.0001) // =======================================================
(PID.TID 0000.0001) // Begin MONITOR dynamic field statistics
(PID.TID 0000.0001) // =======================================================
(PID.TID 0000.0001) %MON time_tsnumber                =                   936
(PID.TID 0000.0001) %MON time_secondsf                =   1.1232000000000E+06
(PID.TID 0000.0001) %MON dynstat_eta_max              =   4.0846908934946E-02
(PID.TID 0000.0001) %MON dynstat_eta_min              =  -4.4126106094716E-02
(PID.TID 0000.0001) %MON dynstat_eta_mean             =  -2.8247035818735E-10
(PID.TID 0000.0001) %MON dynstat_eta_sd               =   1.9879443451600E-02
(PID.TID 0000.0001) %MON dynstat_eta_del2             =   1.3274360500750E-07
(PID.TID 0000.0001) %MON dynstat_uvel_max             =   1.4239529529517E-02
(PID.TID 0000.0001) %MON dynstat_uvel_min             =  -1.7535734493085E-02
(PID.TID 0000.0001) %MON dynstat_uvel_mean            =  -4.1214554825039E-07
(PID.TID 0000.0001) %MON dynstat_uvel_sd              =   7.6588472286464E-03
(PID.TID 0000.0001) %MON dynstat_uvel_del2            =   2.9820866511899E-07
(PID.TID 0000.0001) %MON dynstat_vvel_max             =   2.8567970116517E-02
(PID.TID 0000.0001) %MON dynstat_vvel_min             =  -1.6198610577417E-02
(PID.TID 0000.0001) %MON dynstat_vvel_mean            =   4.8118657658041E-08
(PID.TID 0000.0001) %MON dynstat_vvel_sd              =   7.7497190289112E-03
(PID.TID 0000.0001) %MON dynstat_vvel_del2            =   5.7063044806684E-07
(PID.TID 0000.0001) %MON dynstat_wvel_max             =   3.7780056518386E-08
(PID.TID 0000.0001) %MON dynstat_wvel_min             =  -4.5964587475173E-08
(PID.TID 0000.0001) %MON dynstat_wvel_mean            =  -2.4546508747589E-21
(PID.TID 0000.0001) %MON dynstat_wvel_sd              =   1.8344189747948E-08
(PID.TID 0000.0001) %MON dynstat_wvel_del2            =   1.1760219475554E-13
(PID.TID 0000.0001) %MON dynstat_theta_max            =   2.0000000000000E+01
(PID.TID 0000.0001) %MON dynstat_theta_min            =   2.0000000000000E+01
(PID.TID 0000.0001) %MON dynstat_theta_mean           =   1.9999999999999E+01
(PID.TID 0000.0001) %MON dynstat_theta_sd             =   1.1972645097557E-12
(PID.TID 0000.0001) %MON dynstat_theta_del2           =   0.0000000000000E+00
(PID.TID 0000.0001) %MON dynstat_salt_max             =   3.0000000000000E+01
(PID.TID 0000.0001) %MON dynstat_salt_min             =   3.0000000000000E+01
(PID.TID 0000.0001) %MON dynstat_salt_mean            =   2.9999999999998E+01
(PID.TID 0000.0001) %MON dynstat_salt_sd              =   2.1529444893531E-12
(PID.TID 0000.0001) %MON dynstat_salt_del2            =   0.0000000000000E+00
(PID.TID 0000.0001) %MON trAdv_CFL_u_max              =   4.2050973966865E-03
(PID.TID 0000.0001) %MON trAdv_CFL_v_max              =   6.8506136364682E-03
(PID.TID 0000.0001) %MON trAdv_CFL_w_max              =   9.4634560833202E-09
(PID.TID 0000.0001) %MON advcfl_uvel_max              =   4.2085762783403E-03
(PID.TID 0000.0001) %MON advcfl_vvel_max              =   6.8563128279641E-03
(PID.TID 0000.0001) %MON advcfl_wvel_max              =   2.2063001988083E-08
(PID.TID 0000.0001) %MON advcfl_W_hf_max              =   0.0000000000000E+00
(PID.TID 0000.0001) %MON pe_b_mean                    =   4.0433582284904E-07
(PID.TID 0000.0001) %MON ke_max                       =   4.0799044934865E-04
(PID.TID 0000.0001) %MON ke_mean                      =   5.9090849893864E-05
(PID.TID 0000.0001) %MON ke_vol                       =   7.2529629296391E+15
(PID.TID 0000.0001) %MON vort_r_min                   =  -7.6650193039369E-07
(PID.TID 0000.0001) %MON vort_r_max                   =   1.5849747418387E-06
(PID.TID 0000.0001) %MON vort_a_mean                  =   1.0615000000000E-04
(PID.TID 0000.0001) %MON vort_a_sd                    =   3.5682672832501E-06
(PID.TID 0000.0001) %MON vort_p_mean                  =   1.1210870169429E-04
(PID.TID 0000.0001) %MON vort_p_sd                    =   2.1051523367580E-05
(PID.TID 0000.0001) %MON surfExpan_theta_mean         =  -4.9153269640545E-20
(PID.TID 0000.0001) %MON surfExpan_salt_mean          =  -7.3405916886730E-20
(PID.TID 0000.0001) // =======================================================
(PID.TID 0000.0001) // End MONITOR dynamic field statistics
(PID.TID 0000.0001) // =======================================================
 cg2d: Sum(rhs),rhsMax =   1.24619251223729E-05  4.76311985785996E-03
 cg2d: Sum(rhs),rhsMax =   1.24710956680221E-05  4.76475590286583E-03
 cg2d: Sum(rhs),rhsMax =   1.24802957985268E-05  4.76638672662575E-03
 cg2d: Sum(rhs),rhsMax =   1.24895176287047E-05  4.76800567233344E-03
 cg2d: Sum(rhs),rhsMax =   1.24987724463253E-05  4.76961273785530E-03
 cg2d: Sum(rhs),rhsMax =   1.25080639864668E-05  4.77120791978274E-03
 cg2d: Sum(rhs),rhsMax =   1.25173875478099E-05  4.77279121612047E-03
 cg2d: Sum(rhs),rhsMax =   1.25267472005572E-05  4.77436262362650E-03
 cg2d: Sum(rhs),rhsMax =   1.25361467371334E-05  4.77592214043839E-03
 cg2d: Sum(rhs),rhsMax =   1.25455759508661E-05  4.77746976348748E-03
 cg2d: Sum(rhs),rhsMax =   1.25550531681583E-05  4.77900549104224E-03
 cg2d: Sum(rhs),rhsMax =   1.25645547097326E-05  4.78052932020717E-03
 cg2d: Sum(rhs),rhsMax =   1.25740926139768E-05  4.78204124938130E-03
 cg2d: Sum(rhs),rhsMax =   1.25836692251163E-05  4.78354127584297E-03
 cg2d: Sum(rhs),rhsMax =   1.25932732218115E-05  4.78502939811913E-03
 cg2d: Sum(rhs),rhsMax =   1.26029185701336E-05  4.78650561366812E-03
 cg2d: Sum(rhs),rhsMax =   1.26125876963520E-05  4.78796992113861E-03
 cg2d: Sum(rhs),rhsMax =   1.26223023239960E-05  4.78942231817220E-03
 cg2d: Sum(rhs),rhsMax =   1.26320457743273E-05  4.79086280354048E-03
 cg2d: Sum(rhs),rhsMax =   1.26418201068755E-05  4.79229137506667E-03
 cg2d: Sum(rhs),rhsMax =   1.26516288269270E-05  4.79370803164253E-03
 cg2d: Sum(rhs),rhsMax =   1.26614796040411E-05  4.79511277127791E-03
 cg2d: Sum(rhs),rhsMax =   1.26713447394684E-05  4.79650559298076E-03
 cg2d: Sum(rhs),rhsMax =   1.26812531385904E-05  4.79788649495172E-03
 cg2d: Sum(rhs),rhsMax =   1.26911986290147E-05  4.79925547631193E-03
 cg2d: Sum(rhs),rhsMax =   1.27011774469499E-05  4.80061253545269E-03
 cg2d: Sum(rhs),rhsMax =   1.27111924091323E-05  4.80195767161045E-03
 cg2d: Sum(rhs),rhsMax =   1.27212356169082E-05  4.80329088336838E-03
 cg2d: Sum(rhs),rhsMax =   1.27313161025384E-05  4.80461217007230E-03
 cg2d: Sum(rhs),rhsMax =   1.27414371146987E-05  4.80592153050162E-03
 cg2d: Sum(rhs),rhsMax =   1.27515845678161E-05  4.80721896411227E-03
 cg2d: Sum(rhs),rhsMax =   1.27617720856593E-05  4.80850446987834E-03
 cg2d: Sum(rhs),rhsMax =   1.27719845525558E-05  4.80977804736630E-03
 cg2d: Sum(rhs),rhsMax =   1.27822400450353E-05  4.81103969574618E-03
 cg2d: Sum(rhs),rhsMax =   1.27925220665022E-05  4.81228941469090E-03
 cg2d: Sum(rhs),rhsMax =   1.28028450615512E-05  4.81352720357005E-03
 cg2d: Sum(rhs),rhsMax =   1.28132037656298E-05  4.81475306216481E-03
 cg2d: Sum(rhs),rhsMax =   1.28235949006933E-05  4.81596699003995E-03
 cg2d: Sum(rhs),rhsMax =   1.28340095145243E-05  4.81716898708460E-03
 cg2d: Sum(rhs),rhsMax =   1.28444642476661E-05  4.81835905306480E-03
 cg2d: Sum(rhs),rhsMax =   1.28549527419995E-05  4.81953718797275E-03
 cg2d: Sum(rhs),rhsMax =   1.28654803193476E-05  4.82070339177462E-03
 cg2d: Sum(rhs),rhsMax =   1.28760055325763E-05  4.82186962454247E-03
 cg2d: Sum(rhs),rhsMax =   1.28864791464414E-05  4.82305341204935E-03
 cg2d: Sum(rhs),rhsMax =   1.28970068358006E-05  4.82422523939451E-03
 cg2d: Sum(rhs),rhsMax =   1.29075681619753E-05  4.82538510656423E-03
 cg2d: Sum(rhs),rhsMax =   1.29181475957731E-05  4.82653301359377E-03
 cg2d: Sum(rhs),rhsMax =   1.29287741213215E-05  4.82766896061012E-03
 cg2d: Sum(rhs),rhsMax =   1.29394343155419E-05  4.82879294781322E-03
 cg2d: Sum(rhs),rhsMax =   1.29501190053866E-05  4.82990497547279E-03
 cg2d: Sum(rhs),rhsMax =   1.29608570010910E-05  4.83100504395087E-03
 cg2d: Sum(rhs),rhsMax =   1.29716147390761E-05  4.83209315366037E-03
 cg2d: Sum(rhs),rhsMax =   1.29824153606607E-05  4.83316930512678E-03
 cg2d: Sum(rhs),rhsMax =   1.29932541158978E-05  4.83423349890500E-03
 cg2d: Sum(rhs),rhsMax =   1.30041200657634E-05  4.83528573568461E-03
 cg2d: Sum(rhs),rhsMax =   1.30150207689646E-05  4.83632601616392E-03
 cg2d: Sum(rhs),rhsMax =   1.30259659726212E-05  4.83735434119269E-03
 cg2d: Sum(rhs),rhsMax =   1.30369356949218E-05  4.83837071161650E-03
 cg2d: Sum(rhs),rhsMax =   1.30479478405790E-05  4.83937512844317E-03
 cg2d: Sum(rhs),rhsMax =   1.30589977968207E-05  4.84036759266461E-03
 cg2d: Sum(rhs),rhsMax =   1.30700788285969E-05  4.84134810544971E-03
 cg2d: Sum(rhs),rhsMax =   1.30811929159973E-05  4.84231666793575E-03
 cg2d: Sum(rhs),rhsMax =   1.30923633479031E-05  4.84327328144978E-03
 cg2d: Sum(rhs),rhsMax =   1.31035488855069E-05  4.84421794727917E-03
 cg2d: Sum(rhs),rhsMax =   1.31147767631415E-05  4.84515066690614E-03
 cg2d: Sum(rhs),rhsMax =   1.31260340232760E-05  4.84607144176759E-03
 cg2d: Sum(rhs),rhsMax =   1.31373371009026E-05  4.84698027350175E-03
 cg2d: Sum(rhs),rhsMax =   1.31486729104506E-05  4.84787716369604E-03
 cg2d: Sum(rhs),rhsMax =   1.31600436681558E-05  4.84876211414404E-03
 cg2d: Sum(rhs),rhsMax =   1.31714520036803E-05  4.84963512658295E-03
 cg2d: Sum(rhs),rhsMax =   1.31828897426793E-05  4.85049620296158E-03
 cg2d: Sum(rhs),rhsMax =   1.31943870980648E-05  4.85134534516828E-03
(PID.TID 0000.0001)      cg2d_init_res =   2.09610006512827E-02
(PID.TID 0000.0001)      cg2d_iters(min,last) =      -1     401
(PID.TID 0000.0001)      cg2d_last_res =   9.69169321594442E-08
(PID.TID 0000.0001) // =======================================================
(PID.TID 0000.0001) // Begin MONITOR dynamic field statistics
(PID.TID 0000.0001) // =======================================================
(PID.TID 0000.0001) %MON time_tsnumber                =                  1008
(PID.TID 0000.0001) %MON time_secondsf                =   1.2096000000000E+06
(PID.TID 0000.0001) %MON dynstat_eta_max              =   4.2451445575249E-02
(PID.TID 0000.0001) %MON dynstat_eta_min              =  -4.6798726960348E-02
(PID.TID 0000.0001) %MON dynstat_eta_mean             =  -3.0493075104672E-10
(PID.TID 0000.0001) %MON dynstat_eta_sd               =   2.0769980306541E-02
(PID.TID 0000.0001) %MON dynstat_eta_del2             =   1.3919739382926E-07
(PID.TID 0000.0001) %MON dynstat_uvel_max             =   1.5142926144719E-02
(PID.TID 0000.0001) %MON dynstat_uvel_min             =  -1.8549303902659E-02
(PID.TID 0000.0001) %MON dynstat_uvel_mean            =  -2.9988610627432E-07
(PID.TID 0000.0001) %MON dynstat_uvel_sd              =   7.8868942094641E-03
(PID.TID 0000.0001) %MON dynstat_uvel_del2            =   2.9639737541934E-07
(PID.TID 0000.0001) %MON dynstat_vvel_max             =   2.9996904985837E-02
(PID.TID 0000.0001) %MON dynstat_vvel_min             =  -1.7694363391182E-02
(PID.TID 0000.0001) %MON dynstat_vvel_mean            =   1.0941793608461E-07
(PID.TID 0000.0001) %MON dynstat_vvel_sd              =   8.2913124491966E-03
(PID.TID 0000.0001) %MON dynstat_vvel_del2            =   5.7661279489680E-07
(PID.TID 0000.0001) %MON dynstat_wvel_max             =   3.5650697122910E-08
(PID.TID 0000.0001) %MON dynstat_wvel_min             =  -4.6023120064056E-08
(PID.TID 0000.0001) %MON dynstat_wvel_mean            =   3.0417227914153E-21
(PID.TID 0000.0001) %MON dynstat_wvel_sd              =   1.8191221240876E-08
(PID.TID 0000.0001) %MON dynstat_wvel_del2            =   1.1267878467783E-13
(PID.TID 0000.0001) %MON dynstat_theta_max            =   2.0000000000000E+01
(PID.TID 0000.0001) %MON dynstat_theta_min            =   2.0000000000000E+01
(PID.TID 0000.0001) %MON dynstat_theta_mean           =   1.9999999999999E+01
(PID.TID 0000.0001) %MON dynstat_theta_sd             =   1.1972645097557E-12
(PID.TID 0000.0001) %MON dynstat_theta_del2           =   0.0000000000000E+00
(PID.TID 0000.0001) %MON dynstat_salt_max             =   3.0000000000000E+01
(PID.TID 0000.0001) %MON dynstat_salt_min             =   3.0000000000000E+01
(PID.TID 0000.0001) %MON dynstat_salt_mean            =   2.9999999999998E+01
(PID.TID 0000.0001) %MON dynstat_salt_sd              =   2.1529444893531E-12
(PID.TID 0000.0001) %MON dynstat_salt_del2            =   0.0000000000000E+00
(PID.TID 0000.0001) %MON trAdv_CFL_u_max              =   4.4484343433029E-03
(PID.TID 0000.0001) %MON trAdv_CFL_v_max              =   7.1945764954742E-03
(PID.TID 0000.0001) %MON trAdv_CFL_w_max              =   8.9142756388344E-09
(PID.TID 0000.0001) %MON advcfl_uvel_max              =   4.4518329366381E-03
(PID.TID 0000.0001) %MON advcfl_vvel_max              =   7.1992571966010E-03
(PID.TID 0000.0001) %MON advcfl_wvel_max              =   2.2091097630747E-08
(PID.TID 0000.0001) %MON advcfl_W_hf_max              =   0.0000000000000E+00
(PID.TID 0000.0001) %MON pe_b_mean                    =   4.4137318667885E-07
(PID.TID 0000.0001) %MON ke_max                       =   4.4985228505222E-04
(PID.TID 0000.0001) %MON ke_mean                      =   6.5179755693912E-05
(PID.TID 0000.0001) %MON ke_vol                       =   7.2529629296391E+15
(PID.TID 0000.0001) %MON vort_r_min                   =  -7.8807248030532E-07
(PID.TID 0000.0001) %MON vort_r_max                   =   1.6294179245894E-06
(PID.TID 0000.0001) %MON vort_a_mean                  =   1.0615000000000E-04
(PID.TID 0000.0001) %MON vort_a_sd                    =   3.5685088411018E-06
(PID.TID 0000.0001) %MON vort_p_mean                  =   1.1210870169429E-04
(PID.TID 0000.0001) %MON vort_p_sd                    =   2.1051981234716E-05
(PID.TID 0000.0001) %MON surfExpan_theta_mean         =   6.0851464142702E-20
(PID.TID 0000.0001) %MON surfExpan_salt_mean          =   9.1370751712078E-20
(PID.TID 0000.0001) // =======================================================
(PID.TID 0000.0001) // End MONITOR dynamic field statistics
(PID.TID 0000.0001) // =======================================================
 cg2d: Sum(rhs),rhsMax =   1.32058960221042E-05  4.85218255530487E-03
 cg2d: Sum(rhs),rhsMax =   1.32174630078606E-05  4.85300783541388E-03
 cg2d: Sum(rhs),rhsMax =   1.32290543520142E-05  4.85382118774832E-03
 cg2d: Sum(rhs),rhsMax =   1.32406859933605E-05  4.85462261450352E-03
 cg2d: Sum(rhs),rhsMax =   1.32523575740850E-05  4.85541211808437E-03
 cg2d: Sum(rhs),rhsMax =   1.32640599736049E-05  4.85618970084156E-03
 cg2d: Sum(rhs),rhsMax =   1.32758044385992E-05  4.85695536533074E-03
 cg2d: Sum(rhs),rhsMax =   1.32875900376375E-05  4.85770911405497E-03
 cg2d: Sum(rhs),rhsMax =   1.32994028009380E-05  4.85845094972155E-03
 cg2d: Sum(rhs),rhsMax =   1.33112643531681E-05  4.85918087498885E-03
 cg2d: Sum(rhs),rhsMax =   1.33231598096455E-05  4.85989889271398E-03
 cg2d: Sum(rhs),rhsMax =   1.33350923645897E-05  4.86060500570920E-03
 cg2d: Sum(rhs),rhsMax =   1.33470206880853E-05  4.86131208746465E-03
 cg2d: Sum(rhs),rhsMax =   1.33589441580449E-05  4.86203499284444E-03
 cg2d: Sum(rhs),rhsMax =   1.33708664738774E-05  4.86274596307437E-03
 cg2d: Sum(rhs),rhsMax =   1.33828413781158E-05  4.86344500129884E-03
 cg2d: Sum(rhs),rhsMax =   1.33948529234366E-05  4.86413211013345E-03
 cg2d: Sum(rhs),rhsMax =   1.34069014389258E-05  4.86480729284783E-03
 cg2d: Sum(rhs),rhsMax =   1.34189896160465E-05  4.86547055223925E-03
 cg2d: Sum(rhs),rhsMax =   1.34311222865224E-05  4.86612189170125E-03
 cg2d: Sum(rhs),rhsMax =   1.34432925832876E-05  4.86676131420921E-03
 cg2d: Sum(rhs),rhsMax =   1.34554952836013E-05  4.86738882328625E-03
 cg2d: Sum(rhs),rhsMax =   1.34677492260316E-05  4.86800442208343E-03
 cg2d: Sum(rhs),rhsMax =   1.34800423200413E-05  4.86860811424956E-03
 cg2d: Sum(rhs),rhsMax =   1.34923687247004E-05  4.86919990311444E-03
 cg2d: Sum(rhs),rhsMax =   1.35047352357621E-05  4.86977979245673E-03
 cg2d: Sum(rhs),rhsMax =   1.35171418439144E-05  4.87034778577917E-03
 cg2d: Sum(rhs),rhsMax =   1.35295890765410E-05  4.87090388699010E-03
 cg2d: Sum(rhs),rhsMax =   1.35420744114181E-05  4.87144809976618E-03
 cg2d: Sum(rhs),rhsMax =   1.35546001468444E-05  4.87198042814798E-03
 cg2d: Sum(rhs),rhsMax =   1.35671646993105E-05  4.87250087598270E-03
 cg2d: Sum(rhs),rhsMax =   1.35797781125671E-05  4.87300944744483E-03
 cg2d: Sum(rhs),rhsMax =   1.35924201318926E-05  4.87350614655169E-03
 cg2d: Sum(rhs),rhsMax =   1.36051132089733E-05  4.87399097761048E-03
 cg2d: Sum(rhs),rhsMax =   1.36178475910135E-05  4.87446394480979E-03
 cg2d: Sum(rhs),rhsMax =   1.36306017398703E-05  4.87492505259030E-03
 cg2d: Sum(rhs),rhsMax =   1.36434145095333E-05  4.87537430530840E-03
 cg2d: Sum(rhs),rhsMax =   1.36562650678903E-05  4.87581170754107E-03
 cg2d: Sum(rhs),rhsMax =   1.36691588261996E-05  4.87623726381215E-03
 cg2d: Sum(rhs),rhsMax =   1.36820842155227E-05  4.87665097883290E-03
 cg2d: Sum(rhs),rhsMax =   1.36950622088294E-05  4.87705285729573E-03
 cg2d: Sum(rhs),rhsMax =   1.37080678732828E-05  4.87744290404774E-03
 cg2d: Sum(rhs),rhsMax =   1.37211213874899E-05  4.87782112394816E-03
 cg2d: Sum(rhs),rhsMax =   1.37342150562068E-05  4.87818752197842E-03
 cg2d: Sum(rhs),rhsMax =   1.37473534705963E-05  4.87854210316552E-03
 cg2d: Sum(rhs),rhsMax =   1.37605486999811E-05  4.87888487262785E-03
 cg2d: Sum(rhs),rhsMax =   1.37737753439365E-05  4.87921583555548E-03
 cg2d: Sum(rhs),rhsMax =   1.37870435559673E-05  4.87953499720639E-03
 cg2d: Sum(rhs),rhsMax =   1.38003675112415E-05  4.87984236293321E-03
 cg2d: Sum(rhs),rhsMax =   1.38137151034431E-05  4.88013793813343E-03
 cg2d: Sum(rhs),rhsMax =   1.38271089696641E-05  4.88042172832227E-03
 cg2d: Sum(rhs),rhsMax =   1.38405423122327E-05  4.88069373903421E-03
 cg2d: Sum(rhs),rhsMax =   1.38540110844083E-05  4.88095397594874E-03
 cg2d: Sum(rhs),rhsMax =   1.38675332918507E-05  4.88120244473948E-03
 cg2d: Sum(rhs),rhsMax =   1.38810908562794E-05  4.88143915124728E-03
 cg2d: Sum(rhs),rhsMax =   1.38946039404328E-05  4.88169637474559E-03
 cg2d: Sum(rhs),rhsMax =   1.39081418813938E-05  4.88194901428291E-03
 cg2d: Sum(rhs),rhsMax =   1.39217199525976E-05  4.88218986018645E-03
 cg2d: Sum(rhs),rhsMax =   1.39353574029593E-05  4.88241891715722E-03
 cg2d: Sum(rhs),rhsMax =   1.39490304536527E-05  4.88263619206641E-03
 cg2d: Sum(rhs),rhsMax =   1.39627462122215E-05  4.88284168977937E-03
 cg2d: Sum(rhs),rhsMax =   1.39765091403850E-05  4.88303541730354E-03
 cg2d: Sum(rhs),rhsMax =   1.39903063521244E-05  4.88321737966775E-03
 cg2d: Sum(rhs),rhsMax =   1.40041584331275E-05  4.88338758401729E-03
 cg2d: Sum(rhs),rhsMax =   1.40180378196495E-05  4.88354603554332E-03
 cg2d: Sum(rhs),rhsMax =   1.40319568789262E-05  4.88369274152898E-03
 cg2d: Sum(rhs),rhsMax =   1.40459267591493E-05  4.88382770732796E-03
 cg2d: Sum(rhs),rhsMax =   1.40599434915820E-05  4.88395094036067E-03
 cg2d: Sum(rhs),rhsMax =   1.40740058485588E-05  4.88406244614227E-03
 cg2d: Sum(rhs),rhsMax =   1.40881167862671E-05  4.88416223223265E-03
 cg2d: Sum(rhs),rhsMax =   1.41022615333612E-05  4.88425030430568E-03
 cg2d: Sum(rhs),rhsMax =   1.41164593828666E-05  4.88432667006012E-03
(PID.TID 0000.0001)      cg2d_init_res =   2.00179125354667E-02
(PID.TID 0000.0001)      cg2d_iters(min,last) =      -1     401
(PID.TID 0000.0001)      cg2d_last_res =   9.85075683393718E-08
(PID.TID 0000.0001) // =======================================================
(PID.TID 0000.0001) // Begin MONITOR dynamic field statistics
(PID.TID 0000.0001) // =======================================================
(PID.TID 0000.0001) %MON time_tsnumber                =                  1080
(PID.TID 0000.0001) %MON time_secondsf                =   1.2960000000000E+06
(PID.TID 0000.0001) %MON dynstat_eta_max              =   4.3706736856593E-02
(PID.TID 0000.0001) %MON dynstat_eta_min              =  -4.9320037492548E-02
(PID.TID 0000.0001) %MON dynstat_eta_mean             =  -3.2845074430533E-10
(PID.TID 0000.0001) %MON dynstat_eta_sd               =   2.1580668817016E-02
(PID.TID 0000.0001) %MON dynstat_eta_del2             =   1.4494007329569E-07
(PID.TID 0000.0001) %MON dynstat_uvel_max             =   1.6080275449613E-02
(PID.TID 0000.0001) %MON dynstat_uvel_min             =  -1.9523640032962E-02
(PID.TID 0000.0001) %MON dynstat_uvel_mean            =  -1.8121692192263E-07
(PID.TID 0000.0001) %MON dynstat_uvel_sd              =   8.1019682109677E-03
(PID.TID 0000.0001) %MON dynstat_uvel_del2            =   2.9591012257230E-07
(PID.TID 0000.0001) %MON dynstat_vvel_max             =   3.1105751237622E-02
(PID.TID 0000.0001) %MON dynstat_vvel_min             =  -1.9072767255441E-02
(PID.TID 0000.0001) %MON dynstat_vvel_mean            =   1.5064066660287E-07
(PID.TID 0000.0001) %MON dynstat_vvel_sd              =   8.7821857006888E-03
(PID.TID 0000.0001) %MON dynstat_vvel_del2            =   5.7735823202775E-07
(PID.TID 0000.0001) %MON dynstat_wvel_max             =   3.3316374827409E-08
(PID.TID 0000.0001) %MON dynstat_wvel_min             =  -4.6098560503451E-08
(PID.TID 0000.0001) %MON dynstat_wvel_mean            =  -1.0276805294634E-21
(PID.TID 0000.0001) %MON dynstat_wvel_sd              =   1.8076277846586E-08
(PID.TID 0000.0001) %MON dynstat_wvel_del2            =   1.0775039246983E-13
(PID.TID 0000.0001) %MON dynstat_theta_max            =   2.0000000000000E+01
(PID.TID 0000.0001) %MON dynstat_theta_min            =   2.0000000000000E+01
(PID.TID 0000.0001) %MON dynstat_theta_mean           =   1.9999999999999E+01
(PID.TID 0000.0001) %MON dynstat_theta_sd             =   1.1972645097557E-12
(PID.TID 0000.0001) %MON dynstat_theta_del2           =   0.0000000000000E+00
(PID.TID 0000.0001) %MON dynstat_salt_max             =   3.0000000000000E+01
(PID.TID 0000.0001) %MON dynstat_salt_min             =   3.0000000000000E+01
(PID.TID 0000.0001) %MON dynstat_salt_mean            =   2.9999999999998E+01
(PID.TID 0000.0001) %MON dynstat_salt_sd              =   2.1529444893531E-12
(PID.TID 0000.0001) %MON dynstat_salt_del2            =   0.0000000000000E+00
(PID.TID 0000.0001) %MON trAdv_CFL_u_max              =   4.6824159627313E-03
(PID.TID 0000.0001) %MON trAdv_CFL_v_max              =   7.4617965274107E-03
(PID.TID 0000.0001) %MON trAdv_CFL_w_max              =   8.3149889643504E-09
(PID.TID 0000.0001) %MON advcfl_uvel_max              =   4.6856736079110E-03
(PID.TID 0000.0001) %MON advcfl_vvel_max              =   7.4653802970292E-03
(PID.TID 0000.0001) %MON advcfl_wvel_max              =   2.2127309041657E-08
(PID.TID 0000.0001) %MON advcfl_W_hf_max              =   0.0000000000000E+00
(PID.TID 0000.0001) %MON pe_b_mean                    =   4.7650073712518E-07
(PID.TID 0000.0001) %MON ke_max                       =   4.8375403846035E-04
(PID.TID 0000.0001) %MON ke_mean                      =   7.1063009245189E-05
(PID.TID 0000.0001) %MON ke_vol                       =   7.2529629296391E+15
(PID.TID 0000.0001) %MON vort_r_min                   =  -8.0806280407845E-07
(PID.TID 0000.0001) %MON vort_r_max                   =   1.6550016678341E-06
(PID.TID 0000.0001) %MON vort_a_mean                  =   1.0615000000000E-04
(PID.TID 0000.0001) %MON vort_a_sd                    =   3.5687220295326E-06
(PID.TID 0000.0001) %MON vort_p_mean                  =   1.1210870169429E-04
(PID.TID 0000.0001) %MON vort_p_sd                    =   2.1052434171873E-05
(PID.TID 0000.0001) %MON surfExpan_theta_mean         =  -2.0725060756585E-20
(PID.TID 0000.0001) %MON surfExpan_salt_mean          =  -3.0907656777792E-20
(PID.TID 0000.0001) // =======================================================
(PID.TID 0000.0001) // End MONITOR dynamic field statistics
(PID.TID 0000.0001) // =======================================================
 cg2d: Sum(rhs),rhsMax =   1.41306929233899E-05  4.88439133533216E-03
 cg2d: Sum(rhs),rhsMax =   1.41449763265324E-05  4.88444430795898E-03
 cg2d: Sum(rhs),rhsMax =   1.41592973165478E-05  4.88448559393530E-03
 cg2d: Sum(rhs),rhsMax =   1.41736647455634E-05  4.88451520123602E-03
 cg2d: Sum(rhs),rhsMax =   1.41880896118093E-05  4.88453313601776E-03
 cg2d: Sum(rhs),rhsMax =   1.42025501108280E-05  4.88453940639316E-03
 cg2d: Sum(rhs),rhsMax =   1.42170485924568E-05  4.88453401867817E-03
 cg2d: Sum(rhs),rhsMax =   1.42316062761074E-05  4.88451698112293E-03
 cg2d: Sum(rhs),rhsMax =   1.42461873235463E-05  4.88448830020389E-03
 cg2d: Sum(rhs),rhsMax =   1.42608210565512E-05  4.88444798430915E-03
 cg2d: Sum(rhs),rhsMax =   1.42755067110058E-05  4.88439604007412E-03
 cg2d: Sum(rhs),rhsMax =   1.42902247756097E-05  4.88433247602406E-03
 cg2d: Sum(rhs),rhsMax =   1.43050022265827E-05  4.88425729895299E-03
 cg2d: Sum(rhs),rhsMax =   1.43198209430588E-05  4.88417051752566E-03
 cg2d: Sum(rhs),rhsMax =   1.43346679322889E-05  4.88407213869379E-03
 cg2d: Sum(rhs),rhsMax =   1.43495838343857E-05  4.88396217125944E-03
 cg2d: Sum(rhs),rhsMax =   1.43645250607841E-05  4.88384062233293E-03
 cg2d: Sum(rhs),rhsMax =   1.43795178670567E-05  4.88370750085484E-03
 cg2d: Sum(rhs),rhsMax =   1.43945687541124E-05  4.88356281409143E-03
 cg2d: Sum(rhs),rhsMax =   1.44096534146140E-05  4.88340657112232E-03
 cg2d: Sum(rhs),rhsMax =   1.44247747985351E-05  4.88323877937088E-03
 cg2d: Sum(rhs),rhsMax =   1.44399509562337E-05  4.88305944805346E-03
 cg2d: Sum(rhs),rhsMax =   1.44551675681972E-05  4.88286858475191E-03
 cg2d: Sum(rhs),rhsMax =   1.44704383505875E-05  4.88266619881982E-03
 cg2d: Sum(rhs),rhsMax =   1.44857504426107E-05  4.88245229799572E-03
 cg2d: Sum(rhs),rhsMax =   1.45010999246034E-05  4.88222689176885E-03
 cg2d: Sum(rhs),rhsMax =   1.45164342895514E-05  4.88201206470537E-03
 cg2d: Sum(rhs),rhsMax =   1.45317576054037E-05  4.88180167913330E-03
 cg2d: Sum(rhs),rhsMax =   1.45471322016144E-05  4.88157975305863E-03
 cg2d: Sum(rhs),rhsMax =   1.45625614475214E-05  4.88134629703204E-03
 cg2d: Sum(rhs),rhsMax =   1.45780232285141E-05  4.88110131779073E-03
 cg2d: Sum(rhs),rhsMax =   1.45935322286555E-05  4.88084482603798E-03
 cg2d: Sum(rhs),rhsMax =   1.46090879009787E-05  4.88057682864994E-03
 cg2d: Sum(rhs),rhsMax =   1.46246860992585E-05  4.88029733648290E-03
 cg2d: Sum(rhs),rhsMax =   1.46403356774110E-05  4.88000635655386E-03
 cg2d: Sum(rhs),rhsMax =   1.46560314232859E-05  4.87970389987129E-03
 cg2d: Sum(rhs),rhsMax =   1.46717670433741E-05  4.87938997359359E-03
 cg2d: Sum(rhs),rhsMax =   1.46875536262119E-05  4.87906458887919E-03
 cg2d: Sum(rhs),rhsMax =   1.47033784331143E-05  4.87872775302836E-03
 cg2d: Sum(rhs),rhsMax =   1.47192373663989E-05  4.87837947734980E-03
 cg2d: Sum(rhs),rhsMax =   1.47351558181883E-05  4.87801976928380E-03
 cg2d: Sum(rhs),rhsMax =   1.47511109447676E-05  4.87764864029104E-03
 cg2d: Sum(rhs),rhsMax =   1.47671214961020E-05  4.87726609795217E-03
 cg2d: Sum(rhs),rhsMax =   1.47831555154347E-05  4.87687215387739E-03
 cg2d: Sum(rhs),rhsMax =   1.47992458146944E-05  4.87646681578782E-03
 cg2d: Sum(rhs),rhsMax =   1.48153807158439E-05  4.87605009544346E-03
 cg2d: Sum(rhs),rhsMax =   1.48315661836831E-05  4.87562200070718E-03
 cg2d: Sum(rhs),rhsMax =   1.48477874062514E-05  4.87518254348503E-03
 cg2d: Sum(rhs),rhsMax =   1.48640557460448E-05  4.87473173178352E-03
 cg2d: Sum(rhs),rhsMax =   1.48803754728213E-05  4.87426957765669E-03
 cg2d: Sum(rhs),rhsMax =   1.48967400960091E-05  4.87379608925152E-03
 cg2d: Sum(rhs),rhsMax =   1.49131430500788E-05  4.87331127876807E-03
 cg2d: Sum(rhs),rhsMax =   1.49295925388031E-05  4.87281515449647E-03
 cg2d: Sum(rhs),rhsMax =   1.49460820822664E-05  4.87230772878221E-03
 cg2d: Sum(rhs),rhsMax =   1.49626186840661E-05  4.87178901005927E-03
 cg2d: Sum(rhs),rhsMax =   1.49791978442185E-05  4.87125901081739E-03
 cg2d: Sum(rhs),rhsMax =   1.49958191327307E-05  4.87071773963065E-03
 cg2d: Sum(rhs),rhsMax =   1.50124786138222E-05  4.87016520913630E-03
 cg2d: Sum(rhs),rhsMax =   1.50291897918400E-05  4.86960142805073E-03
 cg2d: Sum(rhs),rhsMax =   1.50459333533772E-05  4.86902640915370E-03
 cg2d: Sum(rhs),rhsMax =   1.50627223132731E-05  4.86844016130482E-03
 cg2d: Sum(rhs),rhsMax =   1.50795534880361E-05  4.86784269742751E-03
 cg2d: Sum(rhs),rhsMax =   1.50964372104719E-05  4.86723402652356E-03
 cg2d: Sum(rhs),rhsMax =   1.51133576604782E-05  4.86661416165795E-03
 cg2d: Sum(rhs),rhsMax =   1.51303236536494E-05  4.86598311197712E-03
 cg2d: Sum(rhs),rhsMax =   1.51473354971388E-05  4.86534089068823E-03
 cg2d: Sum(rhs),rhsMax =   1.51643861780060E-05  4.86468750707890E-03
 cg2d: Sum(rhs),rhsMax =   1.51814783488531E-05  4.86402297449761E-03
 cg2d: Sum(rhs),rhsMax =   1.51986101275432E-05  4.86334730237711E-03
 cg2d: Sum(rhs),rhsMax =   1.52157770179941E-05  4.86266050420440E-03
 cg2d: Sum(rhs),rhsMax =   1.52329518825212E-05  4.86197706286158E-03
 cg2d: Sum(rhs),rhsMax =   1.52500933974786E-05  4.86130425256701E-03
(PID.TID 0000.0001)      cg2d_init_res =   1.94451070207901E-02
(PID.TID 0000.0001)      cg2d_iters(min,last) =      -1     401
(PID.TID 0000.0001)      cg2d_last_res =   9.86865624244822E-08
(PID.TID 0000.0001) // =======================================================
(PID.TID 0000.0001) // Begin MONITOR dynamic field statistics
(PID.TID 0000.0001) // =======================================================
(PID.TID 0000.0001) %MON time_tsnumber                =                  1152
(PID.TID 0000.0001) %MON time_secondsf                =   1.3824000000000E+06
(PID.TID 0000.0001) %MON dynstat_eta_max              =   4.4614423291035E-02
(PID.TID 0000.0001) %MON dynstat_eta_min              =  -5.1695227919364E-02
(PID.TID 0000.0001) %MON dynstat_eta_mean             =  -3.5314189554353E-10
(PID.TID 0000.0001) %MON dynstat_eta_sd               =   2.2321664710288E-02
(PID.TID 0000.0001) %MON dynstat_eta_del2             =   1.4996438514613E-07
(PID.TID 0000.0001) %MON dynstat_uvel_max             =   1.7050628892506E-02
(PID.TID 0000.0001) %MON dynstat_uvel_min             =  -2.0460717893632E-02
(PID.TID 0000.0001) %MON dynstat_uvel_mean            =  -6.0867237497951E-08
(PID.TID 0000.0001) %MON dynstat_uvel_sd              =   8.3143670372795E-03
(PID.TID 0000.0001) %MON dynstat_uvel_del2            =   2.9660835028359E-07
(PID.TID 0000.0001) %MON dynstat_vvel_max             =   3.1878049693551E-02
(PID.TID 0000.0001) %MON dynstat_vvel_min             =  -2.0319211965519E-02
(PID.TID 0000.0001) %MON dynstat_vvel_mean            =   1.7130908547983E-07
(PID.TID 0000.0001) %MON dynstat_vvel_sd              =   9.2187930539240E-03
(PID.TID 0000.0001) %MON dynstat_vvel_del2            =   5.7323210378469E-07
(PID.TID 0000.0001) %MON dynstat_wvel_max             =   3.0787469553179E-08
(PID.TID 0000.0001) %MON dynstat_wvel_min             =  -4.6262423451990E-08
(PID.TID 0000.0001) %MON dynstat_wvel_mean            =  -1.3722229302863E-21
(PID.TID 0000.0001) %MON dynstat_wvel_sd              =   1.7986473197104E-08
(PID.TID 0000.0001) %MON dynstat_wvel_del2            =   1.0312243758816E-13
(PID.TID 0000.0001) %MON dynstat_theta_max            =   2.0000000000000E+01
(PID.TID 0000.0001) %MON dynstat_theta_min            =   2.0000000000000E+01
(PID.TID 0000.0001) %MON dynstat_theta_mean           =   1.9999999999999E+01
(PID.TID 0000.0001) %MON dynstat_theta_sd             =   1.1972645097557E-12
(PID.TID 0000.0001) %MON dynstat_theta_del2           =   0.0000000000000E+00
(PID.TID 0000.0001) %MON dynstat_salt_max             =   3.0000000000000E+01
(PID.TID 0000.0001) %MON dynstat_salt_min             =   3.0000000000000E+01
(PID.TID 0000.0001) %MON dynstat_salt_mean            =   2.9999999999998E+01
(PID.TID 0000.0001) %MON dynstat_salt_sd              =   2.1529444893531E-12
(PID.TID 0000.0001) %MON dynstat_salt_del2            =   0.0000000000000E+00
(PID.TID 0000.0001) %MON trAdv_CFL_u_max              =   4.9074360853873E-03
(PID.TID 0000.0001) %MON trAdv_CFL_v_max              =   7.6483466428290E-03
(PID.TID 0000.0001) %MON trAdv_CFL_w_max              =   7.6693386892405E-09
(PID.TID 0000.0001) %MON advcfl_uvel_max              =   4.9105722944717E-03
(PID.TID 0000.0001) %MON advcfl_vvel_max              =   7.6507319264522E-03
(PID.TID 0000.0001) %MON advcfl_wvel_max              =   2.2205963256955E-08
(PID.TID 0000.0001) %MON advcfl_W_hf_max              =   0.0000000000000E+00
(PID.TID 0000.0001) %MON pe_b_mean                    =   5.0978486506120E-07
(PID.TID 0000.0001) %MON ke_max                       =   5.0807955633949E-04
(PID.TID 0000.0001) %MON ke_mean                      =   7.6710557533721E-05
(PID.TID 0000.0001) %MON ke_vol                       =   7.2529629296391E+15
(PID.TID 0000.0001) %MON vort_r_min                   =  -8.2704973616443E-07
(PID.TID 0000.0001) %MON vort_r_max                   =   1.6615870663555E-06
(PID.TID 0000.0001) %MON vort_a_mean                  =   1.0615000000000E-04
(PID.TID 0000.0001) %MON vort_a_sd                    =   3.5689048101920E-06
(PID.TID 0000.0001) %MON vort_p_mean                  =   1.1210870169429E-04
(PID.TID 0000.0001) %MON vort_p_sd                    =   2.1052870255384E-05
(PID.TID 0000.0001) %MON surfExpan_theta_mean         =  -2.6714029817570E-20
(PID.TID 0000.0001) %MON surfExpan_salt_mean          =  -3.9701706864308E-20
(PID.TID 0000.0001) // =======================================================
(PID.TID 0000.0001) // End MONITOR dynamic field statistics
(PID.TID 0000.0001) // =======================================================
 cg2d: Sum(rhs),rhsMax =   1.52672664615449E-05  4.86062027822707E-03
 cg2d: Sum(rhs),rhsMax =   1.52844944641250E-05  4.85992515313151E-03
 cg2d: Sum(rhs),rhsMax =   1.53017543619433E-05  4.85921888693574E-03
 cg2d: Sum(rhs),rhsMax =   1.53190673342074E-05  4.85850149309402E-03
 cg2d: Sum(rhs),rhsMax =   1.53364092507526E-05  4.85777298137944E-03
 cg2d: Sum(rhs),rhsMax =   1.53537968038877E-05  4.85703336541208E-03
 cg2d: Sum(rhs),rhsMax =   1.53712102651075E-05  4.85628265508417E-03
 cg2d: Sum(rhs),rhsMax =   1.53886811581228E-05  4.85552086417715E-03
 cg2d: Sum(rhs),rhsMax =   1.54061848509704E-05  4.85474800270057E-03
 cg2d: Sum(rhs),rhsMax =   1.54237227047299E-05  4.85396408460092E-03
 cg2d: Sum(rhs),rhsMax =   1.54413035399949E-05  4.85316912000540E-03
 cg2d: Sum(rhs),rhsMax =   1.54589191812774E-05  4.85236312302196E-03
 cg2d: Sum(rhs),rhsMax =   1.54765810273048E-05  4.85154610389610E-03
 cg2d: Sum(rhs),rhsMax =   1.54942876247378E-05  4.85071807689745E-03
 cg2d: Sum(rhs),rhsMax =   1.55120229986417E-05  4.84987905239157E-03
 cg2d: Sum(rhs),rhsMax =   1.55297943919795E-05  4.84902904480638E-03
 cg2d: Sum(rhs),rhsMax =   1.55476109531920E-05  4.84816806462700E-03
 cg2d: Sum(rhs),rhsMax =   1.55654513177474E-05  4.84729612643974E-03
 cg2d: Sum(rhs),rhsMax =   1.55833392507469E-05  4.84641324085141E-03
 cg2d: Sum(rhs),rhsMax =   1.56012550081540E-05  4.84551942260564E-03
 cg2d: Sum(rhs),rhsMax =   1.56192238970135E-05  4.84461468242863E-03
 cg2d: Sum(rhs),rhsMax =   1.56372196247201E-05  4.84369903522007E-03
 cg2d: Sum(rhs),rhsMax =   1.56552447001142E-05  4.84277249182835E-03
 cg2d: Sum(rhs),rhsMax =   1.56733218553019E-05  4.84183506730757E-03
 cg2d: Sum(rhs),rhsMax =   1.56914266701592E-05  4.84088677262833E-03
 cg2d: Sum(rhs),rhsMax =   1.57095649214560E-05  4.83992762299957E-03
 cg2d: Sum(rhs),rhsMax =   1.57277477245109E-05  4.83895762951260E-03
 cg2d: Sum(rhs),rhsMax =   1.57459520046116E-05  4.83797680752814E-03
 cg2d: Sum(rhs),rhsMax =   1.57642007079899E-05  4.83698516826224E-03
 cg2d: Sum(rhs),rhsMax =   1.57824792505062E-05  4.83598272722678E-03
 cg2d: Sum(rhs),rhsMax =   1.58007904968588E-05  4.83496949575940E-03
 cg2d: Sum(rhs),rhsMax =   1.58191320718294E-05  4.83394548952283E-03
 cg2d: Sum(rhs),rhsMax =   1.58375171666423E-05  4.83291071998140E-03
 cg2d: Sum(rhs),rhsMax =   1.58559217332561E-05  4.83186520294364E-03
 cg2d: Sum(rhs),rhsMax =   1.58743763215025E-05  4.83080894999825E-03
 cg2d: Sum(rhs),rhsMax =   1.58928456683183E-05  4.82974197710346E-03
 cg2d: Sum(rhs),rhsMax =   1.59113618399855E-05  4.82866429597050E-03
 cg2d: Sum(rhs),rhsMax =   1.59299121592071E-05  4.82757592270676E-03
 cg2d: Sum(rhs),rhsMax =   1.59484851688600E-05  4.82647686914656E-03
 cg2d: Sum(rhs),rhsMax =   1.59670979752394E-05  4.82536715154230E-03
 cg2d: Sum(rhs),rhsMax =   1.59857344246249E-05  4.82424678185576E-03
 cg2d: Sum(rhs),rhsMax =   1.60043993392735E-05  4.82311577648415E-03
 cg2d: Sum(rhs),rhsMax =   1.60231054368524E-05  4.82197414751373E-03
 cg2d: Sum(rhs),rhsMax =   1.60418249654376E-05  4.82082191148331E-03
 cg2d: Sum(rhs),rhsMax =   1.60604805084508E-05  4.81968729142001E-03
 cg2d: Sum(rhs),rhsMax =   1.60791586794416E-05  4.81854780097379E-03
 cg2d: Sum(rhs),rhsMax =   1.60978650264165E-05  4.81739766308159E-03
 cg2d: Sum(rhs),rhsMax =   1.61165970125731E-05  4.81623689232702E-03
 cg2d: Sum(rhs),rhsMax =   1.61353604305452E-05  4.81506550274124E-03
 cg2d: Sum(rhs),rhsMax =   1.61541595566240E-05  4.81388350908045E-03
 cg2d: Sum(rhs),rhsMax =   1.61729788956434E-05  4.81269092547353E-03
 cg2d: Sum(rhs),rhsMax =   1.61918315854243E-05  4.81148776684541E-03
 cg2d: Sum(rhs),rhsMax =   1.62107009200538E-05  4.81027404742435E-03
 cg2d: Sum(rhs),rhsMax =   1.62296067022279E-05  4.80904978230396E-03
 cg2d: Sum(rhs),rhsMax =   1.62485338669784E-05  4.80781498581000E-03
 cg2d: Sum(rhs),rhsMax =   1.62675011764601E-05  4.80656967320392E-03
 cg2d: Sum(rhs),rhsMax =   1.62864978531744E-05  4.80531385891045E-03
 cg2d: Sum(rhs),rhsMax =   1.63054990456463E-05  4.80404755835831E-03
 cg2d: Sum(rhs),rhsMax =   1.63245405757524E-05  4.80277078607005E-03
 cg2d: Sum(rhs),rhsMax =   1.63436037761405E-05  4.80148355764135E-03
 cg2d: Sum(rhs),rhsMax =   1.63627023959528E-05  4.80018588769209E-03
 cg2d: Sum(rhs),rhsMax =   1.63818167743125E-05  4.79887779198286E-03
 cg2d: Sum(rhs),rhsMax =   1.64009748128153E-05  4.79755928523480E-03
 cg2d: Sum(rhs),rhsMax =   1.64201388559090E-05  4.79623038337078E-03
 cg2d: Sum(rhs),rhsMax =   1.64393358227984E-05  4.79489110121190E-03
 cg2d: Sum(rhs),rhsMax =   1.64585653010200E-05  4.79354145484259E-03
 cg2d: Sum(rhs),rhsMax =   1.64778280784261E-05  4.79218145918397E-03
 cg2d: Sum(rhs),rhsMax =   1.65001488257998E-05  4.79081113047506E-03
 cg2d: Sum(rhs),rhsMax =   1.65224843036871E-05  4.78943048380608E-03
 cg2d: Sum(rhs),rhsMax =   1.65448458240326E-05  4.78803953549265E-03
 cg2d: Sum(rhs),rhsMax =   1.65672308078922E-05  4.78663830064995E-03
 cg2d: Sum(rhs),rhsMax =   1.65896357424474E-05  4.78522679590815E-03
(PID.TID 0000.0001)      cg2d_init_res =   1.92618751369917E-02
(PID.TID 0000.0001)      cg2d_iters(min,last) =      -1     399
(PID.TID 0000.0001)      cg2d_last_res =   9.93953302259418E-08
(PID.TID 0000.0001) // =======================================================
(PID.TID 0000.0001) // Begin MONITOR dynamic field statistics
(PID.TID 0000.0001) // =======================================================
(PID.TID 0000.0001) %MON time_tsnumber                =                  1224
(PID.TID 0000.0001) %MON time_secondsf                =   1.4688000000000E+06
(PID.TID 0000.0001) %MON dynstat_eta_max              =   4.5180363175839E-02
(PID.TID 0000.0001) %MON dynstat_eta_min              =  -5.3929866903784E-02
(PID.TID 0000.0001) %MON dynstat_eta_mean             =  -3.7817506655765E-10
(PID.TID 0000.0001) %MON dynstat_eta_sd               =   2.3004396846205E-02
(PID.TID 0000.0001) %MON dynstat_eta_del2             =   1.5428064950411E-07
(PID.TID 0000.0001) %MON dynstat_uvel_max             =   1.8048842116146E-02
(PID.TID 0000.0001) %MON dynstat_uvel_min             =  -2.1368228545363E-02
(PID.TID 0000.0001) %MON dynstat_uvel_mean            =   5.6550656580045E-08
(PID.TID 0000.0001) %MON dynstat_uvel_sd              =   8.5327416837950E-03
(PID.TID 0000.0001) %MON dynstat_uvel_del2            =   2.9827032460512E-07
(PID.TID 0000.0001) %MON dynstat_vvel_max             =   3.2306257157447E-02
(PID.TID 0000.0001) %MON dynstat_vvel_min             =  -2.1426542299527E-02
(PID.TID 0000.0001) %MON dynstat_vvel_mean            =   1.7173821545545E-07
(PID.TID 0000.0001) %MON dynstat_vvel_sd              =   9.5998446273714E-03
(PID.TID 0000.0001) %MON dynstat_vvel_del2            =   5.6476194535946E-07
(PID.TID 0000.0001) %MON dynstat_wvel_max             =   2.8099700617604E-08
(PID.TID 0000.0001) %MON dynstat_wvel_min             =  -4.6599230414722E-08
(PID.TID 0000.0001) %MON dynstat_wvel_mean            =  -1.3945854446207E-21
(PID.TID 0000.0001) %MON dynstat_wvel_sd              =   1.7907001938520E-08
(PID.TID 0000.0001) %MON dynstat_wvel_del2            =   9.9120678469393E-14
(PID.TID 0000.0001) %MON dynstat_theta_max            =   2.0000000000000E+01
(PID.TID 0000.0001) %MON dynstat_theta_min            =   2.0000000000000E+01
(PID.TID 0000.0001) %MON dynstat_theta_mean           =   1.9999999999999E+01
(PID.TID 0000.0001) %MON dynstat_theta_sd             =   1.1972645097557E-12
(PID.TID 0000.0001) %MON dynstat_theta_del2           =   0.0000000000000E+00
(PID.TID 0000.0001) %MON dynstat_salt_max             =   3.0000000000000E+01
(PID.TID 0000.0001) %MON dynstat_salt_min             =   3.0000000000000E+01
(PID.TID 0000.0001) %MON dynstat_salt_mean            =   2.9999999999998E+01
(PID.TID 0000.0001) %MON dynstat_salt_sd              =   2.1529444893531E-12
(PID.TID 0000.0001) %MON dynstat_salt_del2            =   0.0000000000000E+00
(PID.TID 0000.0001) %MON trAdv_CFL_u_max              =   5.1252661382051E-03
(PID.TID 0000.0001) %MON trAdv_CFL_v_max              =   7.7522746079787E-03
(PID.TID 0000.0001) %MON trAdv_CFL_w_max              =   6.9855734363984E-09
(PID.TID 0000.0001) %MON advcfl_uvel_max              =   5.1283748508870E-03
(PID.TID 0000.0001) %MON advcfl_vvel_max              =   7.7535017177873E-03
(PID.TID 0000.0001) %MON advcfl_wvel_max              =   2.2367630599067E-08
(PID.TID 0000.0001) %MON advcfl_W_hf_max              =   0.0000000000000E+00
(PID.TID 0000.0001) %MON pe_b_mean                    =   5.4144641028091E-07
(PID.TID 0000.0001) %MON ke_max                       =   5.2178694749956E-04
(PID.TID 0000.0001) %MON ke_mean                      =   8.2111064330184E-05
(PID.TID 0000.0001) %MON ke_vol                       =   7.2529629296391E+15
(PID.TID 0000.0001) %MON vort_r_min                   =  -8.4557955948232E-07
(PID.TID 0000.0001) %MON vort_r_max                   =   1.6497408838007E-06
(PID.TID 0000.0001) %MON vort_a_mean                  =   1.0615000000000E-04
(PID.TID 0000.0001) %MON vort_a_sd                    =   3.5690567713017E-06
(PID.TID 0000.0001) %MON vort_p_mean                  =   1.1210870169429E-04
(PID.TID 0000.0001) %MON vort_p_sd                    =   2.1053278821991E-05
(PID.TID 0000.0001) %MON surfExpan_theta_mean         =  -2.7785907768719E-20
(PID.TID 0000.0001) %MON surfExpan_salt_mean          =  -4.1467103104134E-20
(PID.TID 0000.0001) // =======================================================
(PID.TID 0000.0001) // End MONITOR dynamic field statistics
(PID.TID 0000.0001) // =======================================================
 cg2d: Sum(rhs),rhsMax =   1.66120502761297E-05  4.78380503642621E-03
 cg2d: Sum(rhs),rhsMax =   1.66344998213854E-05  4.78237303900409E-03
 cg2d: Sum(rhs),rhsMax =   1.66569590433104E-05  4.78093081888515E-03
 cg2d: Sum(rhs),rhsMax =   1.66794356452789E-05  4.77947839303500E-03
 cg2d: Sum(rhs),rhsMax =   1.67019298698053E-05  4.77801577678866E-03
 cg2d: Sum(rhs),rhsMax =   1.67244426347891E-05  4.77654298727648E-03
 cg2d: Sum(rhs),rhsMax =   1.67469833463121E-05  4.77506003992820E-03
 cg2d: Sum(rhs),rhsMax =   1.67695501392274E-05  4.77356695203352E-03
 cg2d: Sum(rhs),rhsMax =   1.67921302241508E-05  4.77206373912122E-03
 cg2d: Sum(rhs),rhsMax =   1.68147268571391E-05  4.77055041863736E-03
 cg2d: Sum(rhs),rhsMax =   1.68373434856778E-05  4.76902700621108E-03
 cg2d: Sum(rhs),rhsMax =   1.68599821951890E-05  4.76749351944399E-03
 cg2d: Sum(rhs),rhsMax =   1.68826538467920E-05  4.76594997406301E-03
 cg2d: Sum(rhs),rhsMax =   1.69053410044428E-05  4.76439638782510E-03
 cg2d: Sum(rhs),rhsMax =   1.69280464572229E-05  4.76283277655749E-03
 cg2d: Sum(rhs),rhsMax =   1.69507807906370E-05  4.76125915816809E-03
 cg2d: Sum(rhs),rhsMax =   1.69735230358299E-05  4.75967554858483E-03
 cg2d: Sum(rhs),rhsMax =   1.69962879411935E-05  4.75808196586905E-03
 cg2d: Sum(rhs),rhsMax =   1.70190778494821E-05  4.75647842604883E-03
 cg2d: Sum(rhs),rhsMax =   1.70418524229592E-05  4.75487454298820E-03
 cg2d: Sum(rhs),rhsMax =   1.70645742230708E-05  4.75328229836702E-03
 cg2d: Sum(rhs),rhsMax =   1.70873164735894E-05  4.75168005340595E-03
 cg2d: Sum(rhs),rhsMax =   1.71100804610552E-05  4.75006782692302E-03
 cg2d: Sum(rhs),rhsMax =   1.71328708170066E-05  4.74844563420985E-03
 cg2d: Sum(rhs),rhsMax =   1.71556738789557E-05  4.74681349415909E-03
 cg2d: Sum(rhs),rhsMax =   1.71785161607353E-05  4.74517142223906E-03
 cg2d: Sum(rhs),rhsMax =   1.72013732243261E-05  4.74351943741434E-03
 cg2d: Sum(rhs),rhsMax =   1.72242584297756E-05  4.74185755533198E-03
 cg2d: Sum(rhs),rhsMax =   1.72471546519334E-05  4.74018579502794E-03
 cg2d: Sum(rhs),rhsMax =   1.72700904029679E-05  4.73850417232457E-03
 cg2d: Sum(rhs),rhsMax =   1.72930314850297E-05  4.73681270633067E-03
 cg2d: Sum(rhs),rhsMax =   1.73160037475698E-05  4.73511141304380E-03
 cg2d: Sum(rhs),rhsMax =   1.73390026688633E-05  4.73340031164590E-03
 cg2d: Sum(rhs),rhsMax =   1.73620214130015E-05  4.73167941830783E-03
 cg2d: Sum(rhs),rhsMax =   1.73850475142460E-05  4.72994875228364E-03
 cg2d: Sum(rhs),rhsMax =   1.74081003647825E-05  4.72820832991762E-03
 cg2d: Sum(rhs),rhsMax =   1.74311691839291E-05  4.72645817053783E-03
 cg2d: Sum(rhs),rhsMax =   1.74542702510282E-05  4.72469829065851E-03
 cg2d: Sum(rhs),rhsMax =   1.74803298980432E-05  4.72292870942496E-03
 cg2d: Sum(rhs),rhsMax =   1.75063835656693E-05  4.72114944407001E-03
 cg2d: Sum(rhs),rhsMax =   1.75324472335998E-05  4.71936051374940E-03
 cg2d: Sum(rhs),rhsMax =   1.75585113408386E-05  4.71756193535740E-03
 cg2d: Sum(rhs),rhsMax =   1.75845691217542E-05  4.71575372840678E-03
 cg2d: Sum(rhs),rhsMax =   1.76106240578639E-05  4.71393590998001E-03
 cg2d: Sum(rhs),rhsMax =   1.76366846934735E-05  4.71210849962356E-03
 cg2d: Sum(rhs),rhsMax =   1.76627302570769E-05  4.71027151461139E-03
 cg2d: Sum(rhs),rhsMax =   1.76887788604883E-05  4.70842497454994E-03
 cg2d: Sum(rhs),rhsMax =   1.77148009731509E-05  4.70656889688856E-03
 cg2d: Sum(rhs),rhsMax =   1.77408225360571E-05  4.70470330129940E-03
 cg2d: Sum(rhs),rhsMax =   1.77668064348449E-05  4.70282820540060E-03
 cg2d: Sum(rhs),rhsMax =   1.77927916603562E-05  4.70094362893805E-03
 cg2d: Sum(rhs),rhsMax =   1.78187543151687E-05  4.69904958969453E-03
 cg2d: Sum(rhs),rhsMax =   1.78446854488465E-05  4.69714610749145E-03
 cg2d: Sum(rhs),rhsMax =   1.78705925664366E-05  4.69523320027327E-03
 cg2d: Sum(rhs),rhsMax =   1.78964764305945E-05  4.69331088793580E-03
 cg2d: Sum(rhs),rhsMax =   1.79223251843951E-05  4.69137918858458E-03
 cg2d: Sum(rhs),rhsMax =   1.79481472176758E-05  4.68943812219298E-03
 cg2d: Sum(rhs),rhsMax =   1.79739327942092E-05  4.68748770702054E-03
 cg2d: Sum(rhs),rhsMax =   1.79996671919400E-05  4.68552796312218E-03
 cg2d: Sum(rhs),rhsMax =   1.80267942855167E-05  4.68355890848576E-03
 cg2d: Sum(rhs),rhsMax =   1.80551988728361E-05  4.68158056351123E-03
 cg2d: Sum(rhs),rhsMax =   1.80835361367395E-05  4.67959294821911E-03
 cg2d: Sum(rhs),rhsMax =   1.81118228481051E-05  4.67759608064476E-03
 cg2d: Sum(rhs),rhsMax =   1.81400390204915E-05  4.67558998176540E-03
 cg2d: Sum(rhs),rhsMax =   1.81682034905272E-05  4.67357466855402E-03
 cg2d: Sum(rhs),rhsMax =   1.81963235539977E-05  4.67155016334378E-03
 cg2d: Sum(rhs),rhsMax =   1.82243941573186E-05  4.66951648346085E-03
 cg2d: Sum(rhs),rhsMax =   1.82524235576246E-05  4.66747365089290E-03
 cg2d: Sum(rhs),rhsMax =   1.82804256085804E-05  4.66542168333077E-03
 cg2d: Sum(rhs),rhsMax =   1.83084118465723E-05  4.66336060256020E-03
 cg2d: Sum(rhs),rhsMax =   1.83362873532305E-05  4.66131070260895E-03
 cg2d: Sum(rhs),rhsMax =   1.83641356676992E-05  4.65925900810122E-03
(PID.TID 0000.0001)      cg2d_init_res =   1.94953359726239E-02
(PID.TID 0000.0001)      cg2d_iters(min,last) =      -1     395
(PID.TID 0000.0001)      cg2d_last_res =   9.53981600418861E-08
(PID.TID 0000.0001) // =======================================================
(PID.TID 0000.0001) // Begin MONITOR dynamic field statistics
(PID.TID 0000.0001) // =======================================================
(PID.TID 0000.0001) %MON time_tsnumber                =                  1296
(PID.TID 0000.0001) %MON time_secondsf                =   1.5552000000000E+06
(PID.TID 0000.0001) %MON dynstat_eta_max              =   4.5430047646589E-02
(PID.TID 0000.0001) %MON dynstat_eta_min              =  -5.6040432036995E-02
(PID.TID 0000.0001) %MON dynstat_eta_mean             =  -4.0761487502338E-10
(PID.TID 0000.0001) %MON dynstat_eta_sd               =   2.3641120705340E-02
(PID.TID 0000.0001) %MON dynstat_eta_del2             =   1.5791940788348E-07
(PID.TID 0000.0001) %MON dynstat_uvel_max             =   1.9072464308875E-02
(PID.TID 0000.0001) %MON dynstat_uvel_min             =  -2.2268566927682E-02
(PID.TID 0000.0001) %MON dynstat_uvel_mean            =   1.6672587727191E-07
(PID.TID 0000.0001) %MON dynstat_uvel_sd              =   8.7637090220974E-03
(PID.TID 0000.0001) %MON dynstat_uvel_del2            =   3.0070164211445E-07
(PID.TID 0000.0001) %MON dynstat_vvel_max             =   3.2390463469346E-02
(PID.TID 0000.0001) %MON dynstat_vvel_min             =  -2.2390933925415E-02
(PID.TID 0000.0001) %MON dynstat_vvel_mean            =   1.5299676099005E-07
(PID.TID 0000.0001) %MON dynstat_vvel_sd              =   9.9261828130787E-03
(PID.TID 0000.0001) %MON dynstat_vvel_del2            =   5.5261187367497E-07
(PID.TID 0000.0001) %MON dynstat_wvel_max             =   2.5281276575406E-08
(PID.TID 0000.0001) %MON dynstat_wvel_min             =  -4.7162059682887E-08
(PID.TID 0000.0001) %MON dynstat_wvel_mean            =  -7.3119752034588E-22
(PID.TID 0000.0001) %MON dynstat_wvel_sd              =   1.7823191782011E-08
(PID.TID 0000.0001) %MON dynstat_wvel_del2            =   9.6068156516425E-14
(PID.TID 0000.0001) %MON dynstat_theta_max            =   2.0000000000000E+01
(PID.TID 0000.0001) %MON dynstat_theta_min            =   2.0000000000000E+01
(PID.TID 0000.0001) %MON dynstat_theta_mean           =   1.9999999999999E+01
(PID.TID 0000.0001) %MON dynstat_theta_sd             =   1.1972645097557E-12
(PID.TID 0000.0001) %MON dynstat_theta_del2           =   0.0000000000000E+00
(PID.TID 0000.0001) %MON dynstat_salt_max             =   3.0000000000000E+01
(PID.TID 0000.0001) %MON dynstat_salt_min             =   3.0000000000000E+01
(PID.TID 0000.0001) %MON dynstat_salt_mean            =   2.9999999999998E+01
(PID.TID 0000.0001) %MON dynstat_salt_sd              =   2.1529444893531E-12
(PID.TID 0000.0001) %MON dynstat_salt_del2            =   0.0000000000000E+00
(PID.TID 0000.0001) %MON trAdv_CFL_u_max              =   5.3414199725105E-03
(PID.TID 0000.0001) %MON trAdv_CFL_v_max              =   7.7736258150667E-03
(PID.TID 0000.0001) %MON trAdv_CFL_w_max              =   6.2732778299985E-09
(PID.TID 0000.0001) %MON advcfl_uvel_max              =   5.3444560626438E-03
(PID.TID 0000.0001) %MON advcfl_vvel_max              =   7.7737112326430E-03
(PID.TID 0000.0001) %MON advcfl_wvel_max              =   2.2637788647786E-08
(PID.TID 0000.0001) %MON advcfl_W_hf_max              =   0.0000000000000E+00
(PID.TID 0000.0001) %MON pe_b_mean                    =   5.7183389943755E-07
(PID.TID 0000.0001) %MON ke_max                       =   5.2448090092439E-04
(PID.TID 0000.0001) %MON ke_mean                      =   8.7271233200520E-05
(PID.TID 0000.0001) %MON ke_vol                       =   7.2529629296391E+15
(PID.TID 0000.0001) %MON vort_r_min                   =  -8.6418584200603E-07
(PID.TID 0000.0001) %MON vort_r_max                   =   1.6204197186136E-06
(PID.TID 0000.0001) %MON vort_a_mean                  =   1.0615000000000E-04
(PID.TID 0000.0001) %MON vort_a_sd                    =   3.5691792498821E-06
(PID.TID 0000.0001) %MON vort_p_mean                  =   1.1210870169429E-04
(PID.TID 0000.0001) %MON vort_p_sd                    =   2.1053650839053E-05
(PID.TID 0000.0001) %MON surfExpan_theta_mean         =  -1.5081578365403E-20
(PID.TID 0000.0001) %MON surfExpan_salt_mean          =  -2.2178072863705E-20
(PID.TID 0000.0001) // =======================================================
(PID.TID 0000.0001) // End MONITOR dynamic field statistics
(PID.TID 0000.0001) // =======================================================
 cg2d: Sum(rhs),rhsMax =   1.83920086638031E-05  4.65719815131752E-03
 cg2d: Sum(rhs),rhsMax =   1.84199053002501E-05  4.65512815289392E-03
 cg2d: Sum(rhs),rhsMax =   1.84478482653204E-05  4.65304903174467E-03
 cg2d: Sum(rhs),rhsMax =   1.84758453904456E-05  4.65096080862909E-03
 cg2d: Sum(rhs),rhsMax =   1.85039111252148E-05  4.64886350256918E-03
 cg2d: Sum(rhs),rhsMax =   1.85320535459072E-05  4.64675713444039E-03
 cg2d: Sum(rhs),rhsMax =   1.85603103821184E-05  4.64464172337606E-03
 cg2d: Sum(rhs),rhsMax =   1.85886806274172E-05  4.64251729036823E-03
 cg2d: Sum(rhs),rhsMax =   1.86171850499132E-05  4.64038385465901E-03
 cg2d: Sum(rhs),rhsMax =   1.86458329590293E-05  4.63824143735341E-03
 cg2d: Sum(rhs),rhsMax =   1.86746520286357E-05  4.63609005780613E-03
 cg2d: Sum(rhs),rhsMax =   1.87036522250831E-05  4.63392973723745E-03
 cg2d: Sum(rhs),rhsMax =   1.87328423035052E-05  4.63176049510610E-03
 cg2d: Sum(rhs),rhsMax =   1.87622322990934E-05  4.62958235275103E-03
 cg2d: Sum(rhs),rhsMax =   1.87918533042421E-05  4.62739532973637E-03
 cg2d: Sum(rhs),rhsMax =   1.88217062335044E-05  4.62519944751695E-03
 cg2d: Sum(rhs),rhsMax =   1.88517880989961E-05  4.62299472576193E-03
 cg2d: Sum(rhs),rhsMax =   1.88821174409593E-05  4.62078118604181E-03
 cg2d: Sum(rhs),rhsMax =   1.89127044452515E-05  4.61855884813027E-03
 cg2d: Sum(rhs),rhsMax =   1.89407344884148E-05  4.61632773317004E-03
 cg2d: Sum(rhs),rhsMax =   1.89689946533695E-05  4.61408786204212E-03
 cg2d: Sum(rhs),rhsMax =   1.89974813104808E-05  4.61183925616225E-03
 cg2d: Sum(rhs),rhsMax =   1.90261967525467E-05  4.60958193540197E-03
 cg2d: Sum(rhs),rhsMax =   1.90551496155340E-05  4.60731592173500E-03
 cg2d: Sum(rhs),rhsMax =   1.90843374834205E-05  4.60504123519884E-03
 cg2d: Sum(rhs),rhsMax =   1.91137581566497E-05  4.60275789786689E-03
 cg2d: Sum(rhs),rhsMax =   1.91434225115476E-05  4.60046592987532E-03
 cg2d: Sum(rhs),rhsMax =   1.91733179589447E-05  4.59816535341496E-03
 cg2d: Sum(rhs),rhsMax =   1.92034652494507E-05  4.59585618872150E-03
 cg2d: Sum(rhs),rhsMax =   1.92308441775806E-05  4.59353845839769E-03
 cg2d: Sum(rhs),rhsMax =   1.92584173431404E-05  4.59121218214145E-03
 cg2d: Sum(rhs),rhsMax =   1.92862031853716E-05  4.58887738276640E-03
 cg2d: Sum(rhs),rhsMax =   1.93141712632842E-05  4.58653408059812E-03
 cg2d: Sum(rhs),rhsMax =   1.93423282900135E-05  4.58418229829115E-03
 cg2d: Sum(rhs),rhsMax =   1.93706772403501E-05  4.58182205624856E-03
 cg2d: Sum(rhs),rhsMax =   1.93992350846928E-05  4.57945337725568E-03
 cg2d: Sum(rhs),rhsMax =   1.94279719817128E-05  4.57707628177721E-03
 cg2d: Sum(rhs),rhsMax =   1.94538365480036E-05  4.57469079286240E-03
 cg2d: Sum(rhs),rhsMax =   1.94798434101969E-05  4.57229693080327E-03
 cg2d: Sum(rhs),rhsMax =   1.95060050013143E-05  4.56989471883796E-03
 cg2d: Sum(rhs),rhsMax =   1.95323310709372E-05  4.56748417749381E-03
 cg2d: Sum(rhs),rhsMax =   1.95587960818300E-05  4.56506533009940E-03
 cg2d: Sum(rhs),rhsMax =   1.95854176575777E-05  4.56263819718890E-03
 cg2d: Sum(rhs),rhsMax =   1.96121931326596E-05  4.56020280226631E-03
 cg2d: Sum(rhs),rhsMax =   1.96391156661105E-05  4.55775916588779E-03
 cg2d: Sum(rhs),rhsMax =   1.96661769637386E-05  4.55530731174660E-03
 cg2d: Sum(rhs),rhsMax =   1.96933839763797E-05  4.55284726042722E-03
 cg2d: Sum(rhs),rhsMax =   1.97207364669248E-05  4.55037903579881E-03
 cg2d: Sum(rhs),rhsMax =   1.97482348601365E-05  4.54790265847518E-03
 cg2d: Sum(rhs),rhsMax =   1.97758651134822E-05  4.54541815249150E-03
 cg2d: Sum(rhs),rhsMax =   1.98005330685133E-05  4.54292553863266E-03
 cg2d: Sum(rhs),rhsMax =   1.98253133311798E-05  4.54042484082502E-03
 cg2d: Sum(rhs),rhsMax =   1.98502102568832E-05  4.53791607992299E-03
 cg2d: Sum(rhs),rhsMax =   1.98752191318853E-05  4.53539928021670E-03
 cg2d: Sum(rhs),rhsMax =   1.99002485135203E-05  4.53289584949296E-03
 cg2d: Sum(rhs),rhsMax =   1.99253849087061E-05  4.53038587642751E-03
 cg2d: Sum(rhs),rhsMax =   1.99506373112345E-05  4.52786780831802E-03
 cg2d: Sum(rhs),rhsMax =   1.99760088934690E-05  4.52534167086875E-03
 cg2d: Sum(rhs),rhsMax =   2.00014786110800E-05  4.52280748322845E-03
 cg2d: Sum(rhs),rhsMax =   2.00270636156845E-05  4.52026527136113E-03
 cg2d: Sum(rhs),rhsMax =   2.00527714732252E-05  4.51771505436760E-03
 cg2d: Sum(rhs),rhsMax =   2.00785812603833E-05  4.51515685844686E-03
 cg2d: Sum(rhs),rhsMax =   2.01044948790838E-05  4.51259070267048E-03
 cg2d: Sum(rhs),rhsMax =   2.01305263172295E-05  4.51001661345015E-03
 cg2d: Sum(rhs),rhsMax =   2.01566679307544E-05  4.50743460985253E-03
 cg2d: Sum(rhs),rhsMax =   2.01829242828921E-05  4.50484471848319E-03
 cg2d: Sum(rhs),rhsMax =   2.02092836731928E-05  4.50224695841585E-03
 cg2d: Sum(rhs),rhsMax =   2.02357419874250E-05  4.49964135643621E-03
 cg2d: Sum(rhs),rhsMax =   2.02623181282044E-05  4.49702793163462E-03
 cg2d: Sum(rhs),rhsMax =   2.02889943656109E-05  4.49440671097383E-03
 cg2d: Sum(rhs),rhsMax =   2.03157784061745E-05  4.49177771356222E-03
 cg2d: Sum(rhs),rhsMax =   2.03426733647576E-05  4.48914096653299E-03
(PID.TID 0000.0001)      cg2d_init_res =   2.01632475119557E-02
(PID.TID 0000.0001)      cg2d_iters(min,last) =      -1     403
(PID.TID 0000.0001)      cg2d_last_res =   9.98657738841600E-08
(PID.TID 0000.0001) // =======================================================
(PID.TID 0000.0001) // Begin MONITOR dynamic field statistics
(PID.TID 0000.0001) // =======================================================
(PID.TID 0000.0001) %MON time_tsnumber                =                  1368
(PID.TID 0000.0001) %MON time_secondsf                =   1.6416000000000E+06
(PID.TID 0000.0001) %MON dynstat_eta_max              =   4.5364943230289E-02
(PID.TID 0000.0001) %MON dynstat_eta_min              =  -5.8025691104050E-02
(PID.TID 0000.0001) %MON dynstat_eta_mean             =  -4.3489820949821E-10
(PID.TID 0000.0001) %MON dynstat_eta_sd               =   2.4244437048286E-02
(PID.TID 0000.0001) %MON dynstat_eta_del2             =   1.6093301502237E-07
(PID.TID 0000.0001) %MON dynstat_uvel_max             =   2.0113331677156E-02
(PID.TID 0000.0001) %MON dynstat_uvel_min             =  -2.3154766566013E-02
(PID.TID 0000.0001) %MON dynstat_uvel_mean            =   2.6581538244110E-07
(PID.TID 0000.0001) %MON dynstat_uvel_sd              =   9.0117488943597E-03
(PID.TID 0000.0001) %MON dynstat_uvel_del2            =   3.0381875325092E-07
(PID.TID 0000.0001) %MON dynstat_vvel_max             =   3.2140675022930E-02
(PID.TID 0000.0001) %MON dynstat_vvel_min             =  -2.3213856947263E-02
(PID.TID 0000.0001) %MON dynstat_vvel_mean            =   1.1683797368744E-07
(PID.TID 0000.0001) %MON dynstat_vvel_sd              =   1.0200548879621E-02
(PID.TID 0000.0001) %MON dynstat_vvel_del2            =   5.3755255346973E-07
(PID.TID 0000.0001) %MON dynstat_wvel_max             =   2.2390719095711E-08
(PID.TID 0000.0001) %MON dynstat_wvel_min             =  -4.7901481539011E-08
(PID.TID 0000.0001) %MON dynstat_wvel_mean            =   2.0129671477179E-22
(PID.TID 0000.0001) %MON dynstat_wvel_sd              =   1.7722455882468E-08
(PID.TID 0000.0001) %MON dynstat_wvel_del2            =   9.4142943895878E-14
(PID.TID 0000.0001) %MON dynstat_theta_max            =   2.0000000000000E+01
(PID.TID 0000.0001) %MON dynstat_theta_min            =   2.0000000000000E+01
(PID.TID 0000.0001) %MON dynstat_theta_mean           =   1.9999999999999E+01
(PID.TID 0000.0001) %MON dynstat_theta_sd             =   1.1972645097557E-12
(PID.TID 0000.0001) %MON dynstat_theta_del2           =   0.0000000000000E+00
(PID.TID 0000.0001) %MON dynstat_salt_max             =   3.0000000000000E+01
(PID.TID 0000.0001) %MON dynstat_salt_min             =   3.0000000000000E+01
(PID.TID 0000.0001) %MON dynstat_salt_mean            =   2.9999999999998E+01
(PID.TID 0000.0001) %MON dynstat_salt_sd              =   2.1529444893531E-12
(PID.TID 0000.0001) %MON dynstat_salt_del2            =   0.0000000000000E+00
(PID.TID 0000.0001) %MON trAdv_CFL_u_max              =   5.5541569871806E-03
(PID.TID 0000.0001) %MON trAdv_CFL_v_max              =   7.7147700342833E-03
(PID.TID 0000.0001) %MON trAdv_CFL_w_max              =   5.5426853441645E-09
(PID.TID 0000.0001) %MON advcfl_uvel_max              =   5.5571439758432E-03
(PID.TID 0000.0001) %MON advcfl_vvel_max              =   7.7137620055032E-03
(PID.TID 0000.0001) %MON advcfl_wvel_max              =   2.2992711138725E-08
(PID.TID 0000.0001) %MON advcfl_W_hf_max              =   0.0000000000000E+00
(PID.TID 0000.0001) %MON pe_b_mean                    =   6.0139246925311E-07
(PID.TID 0000.0001) %MON ke_max                       =   5.1648055088177E-04
(PID.TID 0000.0001) %MON ke_mean                      =   9.2214438612970E-05
(PID.TID 0000.0001) %MON ke_vol                       =   7.2529629296391E+15
(PID.TID 0000.0001) %MON vort_r_min                   =  -8.8332345640592E-07
(PID.TID 0000.0001) %MON vort_r_max                   =   1.5750969357203E-06
(PID.TID 0000.0001) %MON vort_a_mean                  =   1.0615000000000E-04
(PID.TID 0000.0001) %MON vort_a_sd                    =   3.5692753300649E-06
(PID.TID 0000.0001) %MON vort_p_mean                  =   1.1210870169429E-04
(PID.TID 0000.0001) %MON vort_p_sd                    =   2.1053979186123E-05
(PID.TID 0000.0001) %MON surfExpan_theta_mean         =   3.6874955905649E-21
(PID.TID 0000.0001) %MON surfExpan_salt_mean          =   5.5841830230838E-21
(PID.TID 0000.0001) // =======================================================
(PID.TID 0000.0001) // End MONITOR dynamic field statistics
(PID.TID 0000.0001) // =======================================================
 cg2d: Sum(rhs),rhsMax =   2.03696731937066E-05  4.48649648901770E-03
 cg2d: Sum(rhs),rhsMax =   2.03951154625348E-05  4.48384430769682E-03
 cg2d: Sum(rhs),rhsMax =   2.04206613303309E-05  4.48118444270245E-03
 cg2d: Sum(rhs),rhsMax =   2.04462953919890E-05  4.47851692193584E-03
 cg2d: Sum(rhs),rhsMax =   2.04720247561300E-05  4.47584176301530E-03
 cg2d: Sum(rhs),rhsMax =   2.04978502742394E-05  4.47315899441922E-03
 cg2d: Sum(rhs),rhsMax =   2.05237780565304E-05  4.47046863515730E-03
 cg2d: Sum(rhs),rhsMax =   2.05497922938763E-05  4.46777071431350E-03
 cg2d: Sum(rhs),rhsMax =   2.05759181641472E-05  4.46506524881534E-03
 cg2d: Sum(rhs),rhsMax =   2.06021393893106E-05  4.46235226794742E-03
 cg2d: Sum(rhs),rhsMax =   2.06284574242113E-05  4.45963179048276E-03
 cg2d: Sum(rhs),rhsMax =   2.06548668869200E-05  4.45690384507698E-03
 cg2d: Sum(rhs),rhsMax =   2.06813748725408E-05  4.45416845059639E-03
 cg2d: Sum(rhs),rhsMax =   2.07079706950591E-05  4.45142563566724E-03
 cg2d: Sum(rhs),rhsMax =   2.07346752756545E-05  4.44867541930718E-03
 cg2d: Sum(rhs),rhsMax =   2.07614574565321E-05  4.44591783003678E-03
 cg2d: Sum(rhs),rhsMax =   2.07868642104220E-05  4.44315288998858E-03
 cg2d: Sum(rhs),rhsMax =   2.08123672102711E-05  4.44038061917017E-03
 cg2d: Sum(rhs),rhsMax =   2.08379410833754E-05  4.43760104802081E-03
 cg2d: Sum(rhs),rhsMax =   2.08636169995551E-05  4.43481419523672E-03
 cg2d: Sum(rhs),rhsMax =   2.08893872202971E-05  4.43202008919823E-03
 cg2d: Sum(rhs),rhsMax =   2.09152427169366E-05  4.42921875025809E-03
 cg2d: Sum(rhs),rhsMax =   2.09411771851763E-05  4.42641020640975E-03
 cg2d: Sum(rhs),rhsMax =   2.09672094386455E-05  4.42359447790593E-03
 cg2d: Sum(rhs),rhsMax =   2.09933359394329E-05  4.42077159307286E-03
 cg2d: Sum(rhs),rhsMax =   2.10195409868583E-05  4.41794157214110E-03
 cg2d: Sum(rhs),rhsMax =   2.10458501561060E-05  4.41510444360544E-03
 cg2d: Sum(rhs),rhsMax =   2.10722338963021E-05  4.41226022771769E-03
 cg2d: Sum(rhs),rhsMax =   2.10987091435449E-05  4.40940895308336E-03
 cg2d: Sum(rhs),rhsMax =   2.11252811139588E-05  4.40655064001784E-03
 cg2d: Sum(rhs),rhsMax =   2.11519246235779E-05  4.40368531723090E-03
 cg2d: Sum(rhs),rhsMax =   2.11786638574501E-05  4.40081300511652E-03
 cg2d: Sum(rhs),rhsMax =   2.12054948625987E-05  4.39793373248048E-03
 cg2d: Sum(rhs),rhsMax =   2.12324176093355E-05  4.39504751979653E-03
 cg2d: Sum(rhs),rhsMax =   2.12594262989484E-05  4.39215439595791E-03
 cg2d: Sum(rhs),rhsMax =   2.12865234459712E-05  4.38925438152592E-03
 cg2d: Sum(rhs),rhsMax =   2.13137100132828E-05  4.38634750546638E-03
 cg2d: Sum(rhs),rhsMax =   2.13409939627072E-05  4.38343378844494E-03
 cg2d: Sum(rhs),rhsMax =   2.13683564434745E-05  4.38051325948124E-03
 cg2d: Sum(rhs),rhsMax =   2.13958084488292E-05  4.37758593936304E-03
 cg2d: Sum(rhs),rhsMax =   2.14233486809465E-05  4.37465185714053E-03
 cg2d: Sum(rhs),rhsMax =   2.14509704328011E-05  4.37171103375334E-03
 cg2d: Sum(rhs),rhsMax =   2.14786807752991E-05  4.36876349825093E-03
 cg2d: Sum(rhs),rhsMax =   2.15064812477440E-05  4.36580927174723E-03
 cg2d: Sum(rhs),rhsMax =   2.15343714802026E-05  4.36284838327239E-03
 cg2d: Sum(rhs),rhsMax =   2.15623544649463E-05  4.35988085413171E-03
 cg2d: Sum(rhs),rhsMax =   2.15904221120625E-05  4.35690671332006E-03
 cg2d: Sum(rhs),rhsMax =   2.16185765459995E-05  4.35392598234650E-03
 cg2d: Sum(rhs),rhsMax =   2.16468214630644E-05  4.35093869015185E-03
 cg2d: Sum(rhs),rhsMax =   2.16750947982149E-05  4.34795723424789E-03
 cg2d: Sum(rhs),rhsMax =   2.17034353161474E-05  4.34497287557609E-03
 cg2d: Sum(rhs),rhsMax =   2.17318682298514E-05  4.34198189042613E-03
 cg2d: Sum(rhs),rhsMax =   2.17603840361423E-05  4.33898430696340E-03
 cg2d: Sum(rhs),rhsMax =   2.17890025415290E-05  4.33598014747042E-03
 cg2d: Sum(rhs),rhsMax =   2.18176890958415E-05  4.33296944010132E-03
 cg2d: Sum(rhs),rhsMax =   2.18464777723641E-05  4.32995220729663E-03
 cg2d: Sum(rhs),rhsMax =   2.18753421766596E-05  4.32692847722097E-03
 cg2d: Sum(rhs),rhsMax =   2.19043106806996E-05  4.32389827245454E-03
 cg2d: Sum(rhs),rhsMax =   2.19333612926295E-05  4.32086162119021E-03
 cg2d: Sum(rhs),rhsMax =   2.19624953888171E-05  4.31781854612428E-03
 cg2d: Sum(rhs),rhsMax =   2.19900882586499E-05  4.31476907582831E-03
 cg2d: Sum(rhs),rhsMax =   2.20177806373161E-05  4.31171323179963E-03
 cg2d: Sum(rhs),rhsMax =   2.20455492211270E-05  4.30865104462435E-03
 cg2d: Sum(rhs),rhsMax =   2.20733948686058E-05  4.30558253489931E-03
 cg2d: Sum(rhs),rhsMax =   2.21013290336892E-05  4.30250773250119E-03
 cg2d: Sum(rhs),rhsMax =   2.21293473919061E-05  4.29942665876566E-03
 cg2d: Sum(rhs),rhsMax =   2.21574598177725E-05  4.29633934519772E-03
 cg2d: Sum(rhs),rhsMax =   2.21856585610244E-05  4.29324581118595E-03
 cg2d: Sum(rhs),rhsMax =   2.22139347498870E-05  4.29014608788026E-03
 cg2d: Sum(rhs),rhsMax =   2.22422937548056E-05  4.28704019649495E-03
 cg2d: Sum(rhs),rhsMax =   2.22707559022987E-05  4.28392816779871E-03
 cg2d: Sum(rhs),rhsMax =   2.22992864848028E-05  4.28081002271866E-03
(PID.TID 0000.0001)      cg2d_init_res =   2.12787794617353E-02
(PID.TID 0000.0001)      cg2d_iters(min,last) =      -1     406
(PID.TID 0000.0001)      cg2d_last_res =   9.28403177938661E-08
(PID.TID 0000.0001) // =======================================================
(PID.TID 0000.0001) // Begin MONITOR dynamic field statistics
(PID.TID 0000.0001) // =======================================================
(PID.TID 0000.0001) %MON time_tsnumber                =                  1440
(PID.TID 0000.0001) %MON time_secondsf                =   1.7280000000000E+06
(PID.TID 0000.0001) %MON dynstat_eta_max              =   4.5030492392561E-02
(PID.TID 0000.0001) %MON dynstat_eta_min              =  -5.9912852071028E-02
(PID.TID 0000.0001) %MON dynstat_eta_mean             =  -4.5451996932073E-10
(PID.TID 0000.0001) %MON dynstat_eta_sd               =   2.4826808723368E-02
(PID.TID 0000.0001) %MON dynstat_eta_del2             =   1.6339590019461E-07
(PID.TID 0000.0001) %MON dynstat_uvel_max             =   2.1167352024603E-02
(PID.TID 0000.0001) %MON dynstat_uvel_min             =  -2.4034354473562E-02
(PID.TID 0000.0001) %MON dynstat_uvel_mean            =   3.5058565740128E-07
(PID.TID 0000.0001) %MON dynstat_uvel_sd              =   9.2793704815029E-03
(PID.TID 0000.0001) %MON dynstat_uvel_del2            =   3.0768953573330E-07
(PID.TID 0000.0001) %MON dynstat_vvel_max             =   3.1578023605485E-02
(PID.TID 0000.0001) %MON dynstat_vvel_min             =  -2.3901989476017E-02
(PID.TID 0000.0001) %MON dynstat_vvel_mean            =   6.5604656748849E-08
(PID.TID 0000.0001) %MON dynstat_vvel_sd              =   1.0427263584548E-02
(PID.TID 0000.0001) %MON dynstat_vvel_del2            =   5.2042834679395E-07
(PID.TID 0000.0001) %MON dynstat_wvel_max             =   1.9479671272566E-08
(PID.TID 0000.0001) %MON dynstat_wvel_min             =  -4.8674082385842E-08
(PID.TID 0000.0001) %MON dynstat_wvel_mean            =  -1.9124724918707E-21
(PID.TID 0000.0001) %MON dynstat_wvel_sd              =   1.7595862518171E-08
(PID.TID 0000.0001) %MON dynstat_wvel_del2            =   9.3467853008887E-14
(PID.TID 0000.0001) %MON dynstat_theta_max            =   2.0000000000000E+01
(PID.TID 0000.0001) %MON dynstat_theta_min            =   2.0000000000000E+01
(PID.TID 0000.0001) %MON dynstat_theta_mean           =   1.9999999999999E+01
(PID.TID 0000.0001) %MON dynstat_theta_sd             =   1.1972645097557E-12
(PID.TID 0000.0001) %MON dynstat_theta_del2           =   0.0000000000000E+00
(PID.TID 0000.0001) %MON dynstat_salt_max             =   3.0000000000000E+01
(PID.TID 0000.0001) %MON dynstat_salt_min             =   3.0000000000000E+01
(PID.TID 0000.0001) %MON dynstat_salt_mean            =   2.9999999999998E+01
(PID.TID 0000.0001) %MON dynstat_salt_sd              =   2.1529444893531E-12
(PID.TID 0000.0001) %MON dynstat_salt_del2            =   0.0000000000000E+00
(PID.TID 0000.0001) %MON trAdv_CFL_u_max              =   5.7652841222691E-03
(PID.TID 0000.0001) %MON trAdv_CFL_v_max              =   7.5807875938828E-03
(PID.TID 0000.0001) %MON trAdv_CFL_w_max              =   4.8107165404077E-09
(PID.TID 0000.0001) %MON advcfl_uvel_max              =   5.7682450736548E-03
(PID.TID 0000.0001) %MON advcfl_vvel_max              =   7.5787256653165E-03
(PID.TID 0000.0001) %MON advcfl_wvel_max              =   2.3363559545204E-08
(PID.TID 0000.0001) %MON advcfl_W_hf_max              =   0.0000000000000E+00
(PID.TID 0000.0001) %MON pe_b_mean                    =   6.3063137426182E-07
(PID.TID 0000.0001) %MON ke_max                       =   4.9853176171955E-04
(PID.TID 0000.0001) %MON ke_mean                      =   9.6978759048822E-05
(PID.TID 0000.0001) %MON ke_vol                       =   7.2529629296391E+15
(PID.TID 0000.0001) %MON vort_r_min                   =  -9.0339544783710E-07
(PID.TID 0000.0001) %MON vort_r_max                   =   1.5156410994152E-06
(PID.TID 0000.0001) %MON vort_a_mean                  =   1.0615000000000E-04
(PID.TID 0000.0001) %MON vort_a_sd                    =   3.5693497047448E-06
(PID.TID 0000.0001) %MON vort_p_mean                  =   1.1210870169429E-04
(PID.TID 0000.0001) %MON vort_p_sd                    =   2.1054258835922E-05
(PID.TID 0000.0001) %MON surfExpan_theta_mean         =  -3.8972984914492E-20
(PID.TID 0000.0001) %MON surfExpan_salt_mean          =  -5.8153825172364E-20
(PID.TID 0000.0001) // =======================================================
(PID.TID 0000.0001) // End MONITOR dynamic field statistics
(PID.TID 0000.0001) // =======================================================
 cg2d: Sum(rhs),rhsMax =   2.23279011415858E-05  4.27768579189552E-03
 cg2d: Sum(rhs),rhsMax =   2.23566055887608E-05  4.27455549690714E-03
 cg2d: Sum(rhs),rhsMax =   2.23853910511947E-05  4.27141916791215E-03
 cg2d: Sum(rhs),rhsMax =   2.24142600764241E-05  4.26827682756760E-03
 cg2d: Sum(rhs),rhsMax =   2.24432261012927E-05  4.26512850572280E-03
 cg2d: Sum(rhs),rhsMax =   2.24722659081574E-05  4.26197422229012E-03
 cg2d: Sum(rhs),rhsMax =   2.25013889416335E-05  4.25881400916727E-03
 cg2d: Sum(rhs),rhsMax =   2.25305888667000E-05  4.25564788928782E-03
 cg2d: Sum(rhs),rhsMax =   2.25598893403688E-05  4.25247589231249E-03
 cg2d: Sum(rhs),rhsMax =   2.25892891830854E-05  4.24929804079585E-03
 cg2d: Sum(rhs),rhsMax =   2.26187545613859E-05  4.24611436418662E-03
 cg2d: Sum(rhs),rhsMax =   2.26483099189309E-05  4.24292488642454E-03
 cg2d: Sum(rhs),rhsMax =   2.26779549172482E-05  4.23972963606818E-03
 cg2d: Sum(rhs),rhsMax =   2.27076814314220E-05  4.23652863681036E-03
 cg2d: Sum(rhs),rhsMax =   2.27374953401267E-05  4.23332191775985E-03
 cg2d: Sum(rhs),rhsMax =   2.27673929159150E-05  4.23010950217807E-03
 cg2d: Sum(rhs),rhsMax =   2.27973788602676E-05  4.22689142048900E-03
 cg2d: Sum(rhs),rhsMax =   2.28274342275805E-05  4.22366769605877E-03
 cg2d: Sum(rhs),rhsMax =   2.28575990319588E-05  4.22043835847742E-03
 cg2d: Sum(rhs),rhsMax =   2.28878347384772E-05  4.21720343047883E-03
 cg2d: Sum(rhs),rhsMax =   2.29181546880612E-05  4.21396294217220E-03
 cg2d: Sum(rhs),rhsMax =   2.29485718946047E-05  4.21071691874400E-03
 cg2d: Sum(rhs),rhsMax =   2.29790662011724E-05  4.20746538877983E-03
 cg2d: Sum(rhs),rhsMax =   2.30096525694352E-05  4.20420837448476E-03
 cg2d: Sum(rhs),rhsMax =   2.30403191276100E-05  4.20094590762341E-03
 cg2d: Sum(rhs),rhsMax =   2.30710714252680E-05  4.19767801045801E-03
 cg2d: Sum(rhs),rhsMax =   2.31019114802777E-05  4.19440471368628E-03
 cg2d: Sum(rhs),rhsMax =   2.31328501713868E-05  4.19112604216507E-03
 cg2d: Sum(rhs),rhsMax =   2.31638605928345E-05  4.18784202482734E-03
 cg2d: Sum(rhs),rhsMax =   2.31949630471965E-05  4.18455268525143E-03
 cg2d: Sum(rhs),rhsMax =   2.32261490394382E-05  4.18125805401750E-03
 cg2d: Sum(rhs),rhsMax =   2.32574157768804E-05  4.17795815468773E-03
 cg2d: Sum(rhs),rhsMax =   2.32887778059427E-05  4.17465301770337E-03
 cg2d: Sum(rhs),rhsMax =   2.33202285690719E-05  4.17134266691861E-03
 cg2d: Sum(rhs),rhsMax =   2.33517391242041E-05  4.16802713258752E-03
 cg2d: Sum(rhs),rhsMax =   2.33833504673341E-05  4.16470643868230E-03
 cg2d: Sum(rhs),rhsMax =   2.34150496722270E-05  4.16138061551673E-03
 cg2d: Sum(rhs),rhsMax =   2.34468530199514E-05  4.15804968671856E-03
 cg2d: Sum(rhs),rhsMax =   2.34787228706075E-05  4.15471368331542E-03
 cg2d: Sum(rhs),rhsMax =   2.35106907130276E-05  4.15137262880357E-03
 cg2d: Sum(rhs),rhsMax =   2.35427377718832E-05  4.14802655367534E-03
 cg2d: Sum(rhs),rhsMax =   2.35748759026232E-05  4.14467548348854E-03
 cg2d: Sum(rhs),rhsMax =   2.36071105544165E-05  4.14131944740855E-03
 cg2d: Sum(rhs),rhsMax =   2.36394198847092E-05  4.13795846894204E-03
 cg2d: Sum(rhs),rhsMax =   2.36718171965026E-05  4.13459257964559E-03
 cg2d: Sum(rhs),rhsMax =   2.37042921943948E-05  4.13122180344868E-03
 cg2d: Sum(rhs),rhsMax =   2.37368814338529E-05  4.12784617139885E-03
 cg2d: Sum(rhs),rhsMax =   2.37695498161508E-05  4.12446570715330E-03
 cg2d: Sum(rhs),rhsMax =   2.38023020247852E-05  4.12108044185805E-03
 cg2d: Sum(rhs),rhsMax =   2.38351344435065E-05  4.11769040039119E-03
 cg2d: Sum(rhs),rhsMax =   2.38680537254510E-05  4.11429561327452E-03
 cg2d: Sum(rhs),rhsMax =   2.39010691861722E-05  4.11089610378108E-03
 cg2d: Sum(rhs),rhsMax =   2.39341740703013E-05  4.10749190326068E-03
 cg2d: Sum(rhs),rhsMax =   2.39673607399637E-05  4.10408303652175E-03
 cg2d: Sum(rhs),rhsMax =   2.40006312927765E-05  4.10066953458259E-03
 cg2d: Sum(rhs),rhsMax =   2.40339901233511E-05  4.09725142127443E-03
 cg2d: Sum(rhs),rhsMax =   2.40674383740532E-05  4.09382872815892E-03
 cg2d: Sum(rhs),rhsMax =   2.41009754375389E-05  4.09040147956902E-03
 cg2d: Sum(rhs),rhsMax =   2.41345975416554E-05  4.08696970647743E-03
 cg2d: Sum(rhs),rhsMax =   2.41683164931440E-05  4.08353343379813E-03
 cg2d: Sum(rhs),rhsMax =   2.42021116426613E-05  4.08009269197544E-03
 cg2d: Sum(rhs),rhsMax =   2.42360071757187E-05  4.07664750567861E-03
 cg2d: Sum(rhs),rhsMax =   2.42699875012704E-05  4.07319790652643E-03
 cg2d: Sum(rhs),rhsMax =   2.43040499956944E-05  4.06974391855947E-03
 cg2d: Sum(rhs),rhsMax =   2.43381999839084E-05  4.06628557375207E-03
 cg2d: Sum(rhs),rhsMax =   2.43724487023443E-05  4.06282289603563E-03
 cg2d: Sum(rhs),rhsMax =   2.44067764405189E-05  4.05935591703300E-03
 cg2d: Sum(rhs),rhsMax =   2.44412023815439E-05  4.05588466193023E-03
 cg2d: Sum(rhs),rhsMax =   2.44757071316982E-05  4.05240916167877E-03
 cg2d: Sum(rhs),rhsMax =   2.45103115631851E-05  4.04892944090686E-03
 cg2d: Sum(rhs),rhsMax =   2.45449922488608E-05  4.04544553057139E-03
 cg2d: Sum(rhs),rhsMax =   2.45797662639467E-05  4.04195745566884E-03
(PID.TID 0000.0001)      cg2d_init_res =   2.28421409598495E-02
(PID.TID 0000.0001)      cg2d_iters(min,last) =      -1     406
(PID.TID 0000.0001)      cg2d_last_res =   9.85249812495374E-08
(PID.TID 0000.0001) // =======================================================
(PID.TID 0000.0001) // Begin MONITOR dynamic field statistics
(PID.TID 0000.0001) // =======================================================
(PID.TID 0000.0001) %MON time_tsnumber                =                  1512
(PID.TID 0000.0001) %MON time_secondsf                =   1.8144000000000E+06
(PID.TID 0000.0001) %MON dynstat_eta_max              =   4.4439626129274E-02
(PID.TID 0000.0001) %MON dynstat_eta_min              =  -6.1710838151073E-02
(PID.TID 0000.0001) %MON dynstat_eta_mean             =  -4.7304867442878E-10
(PID.TID 0000.0001) %MON dynstat_eta_sd               =   2.5400109950829E-02
(PID.TID 0000.0001) %MON dynstat_eta_del2             =   1.6540325437052E-07
(PID.TID 0000.0001) %MON dynstat_uvel_max             =   2.2227189380641E-02
(PID.TID 0000.0001) %MON dynstat_uvel_min             =  -2.4914584222779E-02
(PID.TID 0000.0001) %MON dynstat_uvel_mean            =   4.1852445975949E-07
(PID.TID 0000.0001) %MON dynstat_uvel_sd              =   9.5674766075281E-03
(PID.TID 0000.0001) %MON dynstat_uvel_del2            =   3.1252608900835E-07
(PID.TID 0000.0001) %MON dynstat_vvel_max             =   3.0727070127301E-02
(PID.TID 0000.0001) %MON dynstat_vvel_min             =  -2.4469743119402E-02
(PID.TID 0000.0001) %MON dynstat_vvel_mean            =   2.1123865425459E-09
(PID.TID 0000.0001) %MON dynstat_vvel_sd              =   1.0611851977585E-02
(PID.TID 0000.0001) %MON dynstat_vvel_del2            =   5.0212334906185E-07
(PID.TID 0000.0001) %MON dynstat_wvel_max             =   1.9244578484067E-08
(PID.TID 0000.0001) %MON dynstat_wvel_min             =  -4.9308219514787E-08
(PID.TID 0000.0001) %MON dynstat_wvel_mean            =  -3.5210709249608E-21
(PID.TID 0000.0001) %MON dynstat_wvel_sd              =   1.7439134946869E-08
(PID.TID 0000.0001) %MON dynstat_wvel_del2            =   9.3931121029730E-14
(PID.TID 0000.0001) %MON dynstat_theta_max            =   2.0000000000000E+01
(PID.TID 0000.0001) %MON dynstat_theta_min            =   2.0000000000000E+01
(PID.TID 0000.0001) %MON dynstat_theta_mean           =   1.9999999999999E+01
(PID.TID 0000.0001) %MON dynstat_theta_sd             =   1.1972645097557E-12
(PID.TID 0000.0001) %MON dynstat_theta_del2           =   0.0000000000000E+00
(PID.TID 0000.0001) %MON dynstat_salt_max             =   3.0000000000000E+01
(PID.TID 0000.0001) %MON dynstat_salt_min             =   3.0000000000000E+01
(PID.TID 0000.0001) %MON dynstat_salt_mean            =   2.9999999999998E+01
(PID.TID 0000.0001) %MON dynstat_salt_sd              =   2.1529444893531E-12
(PID.TID 0000.0001) %MON dynstat_salt_del2            =   0.0000000000000E+00
(PID.TID 0000.0001) %MON trAdv_CFL_u_max              =   5.9765434673013E-03
(PID.TID 0000.0001) %MON trAdv_CFL_v_max              =   7.3774720136736E-03
(PID.TID 0000.0001) %MON trAdv_CFL_w_max              =   4.7629463052519E-09
(PID.TID 0000.0001) %MON advcfl_uvel_max              =   5.9795002134671E-03
(PID.TID 0000.0001) %MON advcfl_vvel_max              =   7.3744968305523E-03
(PID.TID 0000.0001) %MON advcfl_wvel_max              =   2.3667945367098E-08
(PID.TID 0000.0001) %MON advcfl_W_hf_max              =   0.0000000000000E+00
(PID.TID 0000.0001) %MON pe_b_mean                    =   6.6009276094559E-07
(PID.TID 0000.0001) %MON ke_max                       =   4.7206004950913E-04
(PID.TID 0000.0001) %MON ke_mean                      =   1.0161453165688E-04
(PID.TID 0000.0001) %MON ke_vol                       =   7.2529629296391E+15
(PID.TID 0000.0001) %MON vort_r_min                   =  -9.2474804109937E-07
(PID.TID 0000.0001) %MON vort_r_max                   =   1.4443990955184E-06
(PID.TID 0000.0001) %MON vort_a_mean                  =   1.0615000000000E-04
(PID.TID 0000.0001) %MON vort_a_sd                    =   3.5694084081384E-06
(PID.TID 0000.0001) %MON vort_p_mean                  =   1.1210870169429E-04
(PID.TID 0000.0001) %MON vort_p_sd                    =   2.1054486930420E-05
(PID.TID 0000.0001) %MON surfExpan_theta_mean         =  -7.0833525809031E-20
(PID.TID 0000.0001) %MON surfExpan_salt_mean          =  -1.0584807521701E-19
(PID.TID 0000.0001) // =======================================================
(PID.TID 0000.0001) // End MONITOR dynamic field statistics
(PID.TID 0000.0001) // =======================================================
 cg2d: Sum(rhs),rhsMax =   2.46146384792010E-05  4.03846524819706E-03
 cg2d: Sum(rhs),rhsMax =   2.46495786872143E-05  4.03496893254682E-03
 cg2d: Sum(rhs),rhsMax =   2.46846181734123E-05  4.03146854068200E-03
 cg2d: Sum(rhs),rhsMax =   2.47197468283104E-05  4.02796409702815E-03
 cg2d: Sum(rhs),rhsMax =   2.47549674108286E-05  4.02445563325718E-03
 cg2d: Sum(rhs),rhsMax =   2.47902931445158E-05  4.02094317467252E-03
 cg2d: Sum(rhs),rhsMax =   2.48256822066618E-05  4.01742675245022E-03
 cg2d: Sum(rhs),rhsMax =   2.48611595528858E-05  4.01390639222029E-03
 cg2d: Sum(rhs),rhsMax =   2.48967540439939E-05  4.01038212356452E-03
 cg2d: Sum(rhs),rhsMax =   2.49324073626558E-05  4.00685397365007E-03
 cg2d: Sum(rhs),rhsMax =   2.49681696496244E-05  4.00332197310172E-03
 cg2d: Sum(rhs),rhsMax =   2.50040152044162E-05  3.99978614813374E-03
 cg2d: Sum(rhs),rhsMax =   2.50399295298950E-05  3.99624652928944E-03
 cg2d: Sum(rhs),rhsMax =   2.50759567553792E-05  3.99270314247927E-03
 cg2d: Sum(rhs),rhsMax =   2.51120676205349E-05  3.98915601805528E-03
 cg2d: Sum(rhs),rhsMax =   2.51482784981317E-05  3.98560518320494E-03
 cg2d: Sum(rhs),rhsMax =   2.51845759802471E-05  3.98205066808774E-03
 cg2d: Sum(rhs),rhsMax =   2.52209657745847E-05  3.97849249904165E-03
 cg2d: Sum(rhs),rhsMax =   2.52574485119367E-05  3.97493070660300E-03
 cg2d: Sum(rhs),rhsMax =   2.52939953262355E-05  3.97136531783550E-03
 cg2d: Sum(rhs),rhsMax =   2.53306346387049E-05  3.96779636248211E-03
 cg2d: Sum(rhs),rhsMax =   2.53658492158290E-05  3.96422386636873E-03
 cg2d: Sum(rhs),rhsMax =   2.54011397595282E-05  3.96064786331860E-03
 cg2d: Sum(rhs),rhsMax =   2.54365201318597E-05  3.95706837759480E-03
 cg2d: Sum(rhs),rhsMax =   2.54719968475463E-05  3.95348543992208E-03
 cg2d: Sum(rhs),rhsMax =   2.55075376818705E-05  3.94989907734178E-03
 cg2d: Sum(rhs),rhsMax =   2.55431796003843E-05  3.94630932023190E-03
 cg2d: Sum(rhs),rhsMax =   2.55789112657643E-05  3.94271619594749E-03
 cg2d: Sum(rhs),rhsMax =   2.56147313833274E-05  3.93911973408305E-03
 cg2d: Sum(rhs),rhsMax =   2.56506220445811E-05  3.93551996314847E-03
 cg2d: Sum(rhs),rhsMax =   2.56865940379981E-05  3.93191691171306E-03
 cg2d: Sum(rhs),rhsMax =   2.57226937953395E-05  3.92831060889943E-03
 cg2d: Sum(rhs),rhsMax =   2.57588620622001E-05  3.92470108306311E-03
 cg2d: Sum(rhs),rhsMax =   2.57951112436795E-05  3.92108836342057E-03
 cg2d: Sum(rhs),rhsMax =   2.58314615666395E-05  3.91747247847479E-03
 cg2d: Sum(rhs),rhsMax =   2.58678797387859E-05  3.91385345728887E-03
 cg2d: Sum(rhs),rhsMax =   2.59044257616449E-05  3.91023132866266E-03
 cg2d: Sum(rhs),rhsMax =   2.59410301432540E-05  3.90660612141691E-03
 cg2d: Sum(rhs),rhsMax =   2.59777225392350E-05  3.90297786463730E-03
 cg2d: Sum(rhs),rhsMax =   2.60145120697265E-05  3.89934658696523E-03
 cg2d: Sum(rhs),rhsMax =   2.60513686167300E-05  3.89571231767770E-03
 cg2d: Sum(rhs),rhsMax =   2.60883295800911E-05  3.89207508533663E-03
 cg2d: Sum(rhs),rhsMax =   2.61253889021849E-05  3.88843491931771E-03
 cg2d: Sum(rhs),rhsMax =   2.61625262147711E-05  3.88479184817911E-03
 cg2d: Sum(rhs),rhsMax =   2.61997420489858E-05  3.88114590134318E-03
 cg2d: Sum(rhs),rhsMax =   2.62370508889113E-05  3.87749710739260E-03
 cg2d: Sum(rhs),rhsMax =   2.62744510203927E-05  3.87384549578538E-03
 cg2d: Sum(rhs),rhsMax =   2.63119312947820E-05  3.87019109512955E-03
 cg2d: Sum(rhs),rhsMax =   2.63495212641778E-05  3.86653393491478E-03
 cg2d: Sum(rhs),rhsMax =   2.63871770174347E-05  3.86287404377343E-03
 cg2d: Sum(rhs),rhsMax =   2.64249306142009E-05  3.85921145123516E-03
 cg2d: Sum(rhs),rhsMax =   2.64627609184893E-05  3.85554618594944E-03
 cg2d: Sum(rhs),rhsMax =   2.65006882845704E-05  3.85187827748349E-03
 cg2d: Sum(rhs),rhsMax =   2.65387194043325E-05  3.84820775450523E-03
 cg2d: Sum(rhs),rhsMax =   2.65768398512011E-05  3.84453464661942E-03
 cg2d: Sum(rhs),rhsMax =   2.66150256728829E-05  3.84085898251427E-03
 cg2d: Sum(rhs),rhsMax =   2.66518241399134E-05  3.83718079233320E-03
 cg2d: Sum(rhs),rhsMax =   2.66887097795081E-05  3.83350010236646E-03
 cg2d: Sum(rhs),rhsMax =   2.67256695563184E-05  3.82981694681157E-03
 cg2d: Sum(rhs),rhsMax =   2.67627267794661E-05  3.82613135041901E-03
 cg2d: Sum(rhs),rhsMax =   2.67998557707070E-05  3.82244334477148E-03
 cg2d: Sum(rhs),rhsMax =   2.68370727040234E-05  3.81875295657602E-03
 cg2d: Sum(rhs),rhsMax =   2.68743930793500E-05  3.81506021944063E-03
 cg2d: Sum(rhs),rhsMax =   2.69117918491567E-05  3.81136515691083E-03
 cg2d: Sum(rhs),rhsMax =   2.69492860113275E-05  3.80766780413148E-03
 cg2d: Sum(rhs),rhsMax =   2.69868481888747E-05  3.80396818561570E-03
 cg2d: Sum(rhs),rhsMax =   2.70244929104282E-05  3.80026633463108E-03
 cg2d: Sum(rhs),rhsMax =   2.70622593644878E-05  3.79656227626163E-03
 cg2d: Sum(rhs),rhsMax =   2.71000771078743E-05  3.79285604419898E-03
 cg2d: Sum(rhs),rhsMax =   2.71379985863022E-05  3.78914766439405E-03
 cg2d: Sum(rhs),rhsMax =   2.71759908217241E-05  3.78543716841557E-03
 cg2d: Sum(rhs),rhsMax =   2.72140799409629E-05  3.78172458247209E-03
(PID.TID 0000.0001)      cg2d_init_res =   2.48401265107104E-02
(PID.TID 0000.0001)      cg2d_iters(min,last) =      -1     408
(PID.TID 0000.0001)      cg2d_last_res =   8.88665639541448E-08
(PID.TID 0000.0001) // =======================================================
(PID.TID 0000.0001) // Begin MONITOR dynamic field statistics
(PID.TID 0000.0001) // =======================================================
(PID.TID 0000.0001) %MON time_tsnumber                =                  1584
(PID.TID 0000.0001) %MON time_secondsf                =   1.9008000000000E+06
(PID.TID 0000.0001) %MON dynstat_eta_max              =   4.3625378631891E-02
(PID.TID 0000.0001) %MON dynstat_eta_min              =  -6.3436862450625E-02
(PID.TID 0000.0001) %MON dynstat_eta_mean             =  -4.8996120640975E-10
(PID.TID 0000.0001) %MON dynstat_eta_sd               =   2.5975238908781E-02
(PID.TID 0000.0001) %MON dynstat_eta_del2             =   1.6706797628885E-07
(PID.TID 0000.0001) %MON dynstat_uvel_max             =   2.3289057949819E-02
(PID.TID 0000.0001) %MON dynstat_uvel_min             =  -2.5802222373057E-02
(PID.TID 0000.0001) %MON dynstat_uvel_mean            =   4.6791835696552E-07
(PID.TID 0000.0001) %MON dynstat_uvel_sd              =   9.8758211022098E-03
(PID.TID 0000.0001) %MON dynstat_uvel_del2            =   3.1863414220072E-07
(PID.TID 0000.0001) %MON dynstat_vvel_max             =   2.9637362712304E-02
(PID.TID 0000.0001) %MON dynstat_vvel_min             =  -2.4929060138590E-02
(PID.TID 0000.0001) %MON dynstat_vvel_mean            =  -7.0482862716140E-08
(PID.TID 0000.0001) %MON dynstat_vvel_sd              =   1.0760647564454E-02
(PID.TID 0000.0001) %MON dynstat_vvel_del2            =   4.8352813882914E-07
(PID.TID 0000.0001) %MON dynstat_wvel_max             =   2.0110434816161E-08
(PID.TID 0000.0001) %MON dynstat_wvel_min             =  -4.9685260173865E-08
(PID.TID 0000.0001) %MON dynstat_wvel_mean            =   1.3345182460734E-21
(PID.TID 0000.0001) %MON dynstat_wvel_sd              =   1.7252982976054E-08
(PID.TID 0000.0001) %MON dynstat_wvel_del2            =   9.5274464357245E-14
(PID.TID 0000.0001) %MON dynstat_theta_max            =   2.0000000000000E+01
(PID.TID 0000.0001) %MON dynstat_theta_min            =   2.0000000000000E+01
(PID.TID 0000.0001) %MON dynstat_theta_mean           =   1.9999999999999E+01
(PID.TID 0000.0001) %MON dynstat_theta_sd             =   1.1972645097557E-12
(PID.TID 0000.0001) %MON dynstat_theta_del2           =   0.0000000000000E+00
(PID.TID 0000.0001) %MON dynstat_salt_max             =   3.0000000000000E+01
(PID.TID 0000.0001) %MON dynstat_salt_min             =   3.0000000000000E+01
(PID.TID 0000.0001) %MON dynstat_salt_mean            =   2.9999999999998E+01
(PID.TID 0000.0001) %MON dynstat_salt_sd              =   2.1529444893531E-12
(PID.TID 0000.0001) %MON dynstat_salt_del2            =   0.0000000000000E+00
(PID.TID 0000.0001) %MON trAdv_CFL_u_max              =   6.1895609091979E-03
(PID.TID 0000.0001) %MON trAdv_CFL_v_max              =   7.1166619308438E-03
(PID.TID 0000.0001) %MON trAdv_CFL_w_max              =   4.9996236226830E-09
(PID.TID 0000.0001) %MON advcfl_uvel_max              =   6.1925333695336E-03
(PID.TID 0000.0001) %MON advcfl_vvel_max              =   7.1129670509529E-03
(PID.TID 0000.0001) %MON advcfl_wvel_max              =   2.3848924883455E-08
(PID.TID 0000.0001) %MON advcfl_W_hf_max              =   0.0000000000000E+00
(PID.TID 0000.0001) %MON pe_b_mean                    =   6.9032385022106E-07
(PID.TID 0000.0001) %MON ke_max                       =   4.3914223274747E-04
(PID.TID 0000.0001) %MON ke_mean                      =   1.0618156448057E-04
(PID.TID 0000.0001) %MON ke_vol                       =   7.2529629296391E+15
(PID.TID 0000.0001) %MON vort_r_min                   =  -9.4763530112640E-07
(PID.TID 0000.0001) %MON vort_r_max                   =   1.3642200802627E-06
(PID.TID 0000.0001) %MON vort_a_mean                  =   1.0615000000000E-04
(PID.TID 0000.0001) %MON vort_a_sd                    =   3.5694584373789E-06
(PID.TID 0000.0001) %MON vort_p_mean                  =   1.1210870169429E-04
(PID.TID 0000.0001) %MON vort_p_sd                    =   2.1054662754662E-05
(PID.TID 0000.0001) %MON surfExpan_theta_mean         =   2.6275202517414E-20
(PID.TID 0000.0001) %MON surfExpan_salt_mean          =   3.9661683944363E-20
(PID.TID 0000.0001) // =======================================================
(PID.TID 0000.0001) // End MONITOR dynamic field statistics
(PID.TID 0000.0001) // =======================================================
 cg2d: Sum(rhs),rhsMax =   2.72522577540683E-05  3.77800994030622E-03
 cg2d: Sum(rhs),rhsMax =   2.72905122606689E-05  3.77429326680190E-03
 cg2d: Sum(rhs),rhsMax =   2.73288688196118E-05  3.77057459536318E-03
 cg2d: Sum(rhs),rhsMax =   2.73672734958531E-05  3.76685395204806E-03
 cg2d: Sum(rhs),rhsMax =   2.74057873051025E-05  3.76313136953489E-03
 cg2d: Sum(rhs),rhsMax =   2.74444010849133E-05  3.75940687391564E-03
 cg2d: Sum(rhs),rhsMax =   2.74830941702203E-05  3.75568049694782E-03
 cg2d: Sum(rhs),rhsMax =   2.75218731278903E-05  3.75195226604044E-03
 cg2d: Sum(rhs),rhsMax =   2.75607433887440E-05  3.74822221353487E-03
 cg2d: Sum(rhs),rhsMax =   2.75996927689825E-05  3.74449036510310E-03
 cg2d: Sum(rhs),rhsMax =   2.76387330006445E-05  3.74075675368066E-03
 cg2d: Sum(rhs),rhsMax =   2.76778489729998E-05  3.73702140614942E-03
 cg2d: Sum(rhs),rhsMax =   2.77170678742965E-05  3.73328435461031E-03
 cg2d: Sum(rhs),rhsMax =   2.77563781144376E-05  3.72954562484766E-03
 cg2d: Sum(rhs),rhsMax =   2.77957605094199E-05  3.72580524999641E-03
 cg2d: Sum(rhs),rhsMax =   2.78352267977563E-05  3.72206325691828E-03
 cg2d: Sum(rhs),rhsMax =   2.78747664042671E-05  3.71831967776250E-03
 cg2d: Sum(rhs),rhsMax =   2.79144160600237E-05  3.71457453880540E-03
 cg2d: Sum(rhs),rhsMax =   2.79541575913811E-05  3.71082787179882E-03
 cg2d: Sum(rhs),rhsMax =   2.79939832060032E-05  3.70707970499836E-03
 cg2d: Sum(rhs),rhsMax =   2.80338871792921E-05  3.70333006963175E-03
 cg2d: Sum(rhs),rhsMax =   2.80738822467947E-05  3.69957899286604E-03
 cg2d: Sum(rhs),rhsMax =   2.81139570542672E-05  3.69582650622996E-03
 cg2d: Sum(rhs),rhsMax =   2.81541104684476E-05  3.69207263839629E-03
 cg2d: Sum(rhs),rhsMax =   2.81943654181216E-05  3.68831742009760E-03
 cg2d: Sum(rhs),rhsMax =   2.82347141671111E-05  3.68456087768714E-03
 cg2d: Sum(rhs),rhsMax =   2.82751384347718E-05  3.68080304342520E-03
 cg2d: Sum(rhs),rhsMax =   2.83156446093148E-05  3.67704394629717E-03
 cg2d: Sum(rhs),rhsMax =   2.83562533252655E-05  3.67328361667534E-03
 cg2d: Sum(rhs),rhsMax =   2.83969311411468E-05  3.66952208170329E-03
 cg2d: Sum(rhs),rhsMax =   2.84376994179325E-05  3.66575937339809E-03
 cg2d: Sum(rhs),rhsMax =   2.84785623934063E-05  3.66199551983477E-03
 cg2d: Sum(rhs),rhsMax =   2.85195188629746E-05  3.65823055199708E-03
 cg2d: Sum(rhs),rhsMax =   2.85605581343377E-05  3.65446449745848E-03
 cg2d: Sum(rhs),rhsMax =   2.86016886588379E-05  3.65069738760567E-03
 cg2d: Sum(rhs),rhsMax =   2.86428843941262E-05  3.64692925113969E-03
 cg2d: Sum(rhs),rhsMax =   2.86841881310534E-05  3.64316011887372E-03
 cg2d: Sum(rhs),rhsMax =   2.87255736542338E-05  3.63939001803237E-03
 cg2d: Sum(rhs),rhsMax =   2.87670271319589E-05  3.63561897963320E-03
 cg2d: Sum(rhs),rhsMax =   2.88085987038365E-05  3.63184703317009E-03
 cg2d: Sum(rhs),rhsMax =   2.88502459266163E-05  3.62807420855455E-03
 cg2d: Sum(rhs),rhsMax =   2.88919643272826E-05  3.62430053457013E-03
 cg2d: Sum(rhs),rhsMax =   2.89337920242327E-05  3.62052604166421E-03
 cg2d: Sum(rhs),rhsMax =   2.89756964777493E-05  3.61675075857840E-03
 cg2d: Sum(rhs),rhsMax =   2.90176376528690E-05  3.61298372921297E-03
 cg2d: Sum(rhs),rhsMax =   2.90595830239257E-05  3.60922457308011E-03
 cg2d: Sum(rhs),rhsMax =   2.91015946887289E-05  3.60546488901203E-03
 cg2d: Sum(rhs),rhsMax =   2.91437037119591E-05  3.60170470828400E-03
 cg2d: Sum(rhs),rhsMax =   2.91858944856359E-05  3.59794405885263E-03
 cg2d: Sum(rhs),rhsMax =   2.92281806213521E-05  3.59418297217033E-03
 cg2d: Sum(rhs),rhsMax =   2.92705416722761E-05  3.59042147600136E-03
 cg2d: Sum(rhs),rhsMax =   2.93129904743155E-05  3.58665960205272E-03
 cg2d: Sum(rhs),rhsMax =   2.93555222602195E-05  3.58289737834395E-03
 cg2d: Sum(rhs),rhsMax =   2.93981595782169E-05  3.57913483538068E-03
 cg2d: Sum(rhs),rhsMax =   2.94408741519144E-05  3.57537200148153E-03
 cg2d: Sum(rhs),rhsMax =   2.94836645071753E-05  3.57160890862434E-03
 cg2d: Sum(rhs),rhsMax =   2.95265486196447E-05  3.56784558409596E-03
 cg2d: Sum(rhs),rhsMax =   2.95695089980522E-05  3.56408205985157E-03
 cg2d: Sum(rhs),rhsMax =   2.96125713849585E-05  3.56031836351115E-03
 cg2d: Sum(rhs),rhsMax =   2.96556865162934E-05  3.55655452622700E-03
 cg2d: Sum(rhs),rhsMax =   2.96988933842814E-05  3.55279057602753E-03
 cg2d: Sum(rhs),rhsMax =   2.97422122170800E-05  3.54902654428350E-03
 cg2d: Sum(rhs),rhsMax =   2.97855820866454E-05  3.54526245890314E-03
 cg2d: Sum(rhs),rhsMax =   2.98290425653578E-05  3.54149835130095E-03
 cg2d: Sum(rhs),rhsMax =   2.98725964724463E-05  3.53773424923563E-03
 cg2d: Sum(rhs),rhsMax =   2.99162447852004E-05  3.53397018438470E-03
 cg2d: Sum(rhs),rhsMax =   2.99599587529238E-05  3.53020618433175E-03
 cg2d: Sum(rhs),rhsMax =   3.00037758127134E-05  3.52644228064967E-03
 cg2d: Sum(rhs),rhsMax =   3.00476526094492E-05  3.52267850099267E-03
 cg2d: Sum(rhs),rhsMax =   3.00916491937555E-05  3.51891487677146E-03
 cg2d: Sum(rhs),rhsMax =   3.01357044585650E-05  3.51515143586015E-03
 cg2d: Sum(rhs),rhsMax =   3.01798452351509E-05  3.51138820973791E-03
(PID.TID 0000.0001)      cg2d_init_res =   2.72353111001230E-02
(PID.TID 0000.0001)      cg2d_iters(min,last) =      -1     408
(PID.TID 0000.0001)      cg2d_last_res =   9.40974472169952E-08
(PID.TID 0000.0001) // =======================================================
(PID.TID 0000.0001) // Begin MONITOR dynamic field statistics
(PID.TID 0000.0001) // =======================================================
(PID.TID 0000.0001) %MON time_tsnumber                =                  1656
(PID.TID 0000.0001) %MON time_secondsf                =   1.9872000000000E+06
(PID.TID 0000.0001) %MON dynstat_eta_max              =   4.2621975072869E-02
(PID.TID 0000.0001) %MON dynstat_eta_min              =  -6.5108509989250E-02
(PID.TID 0000.0001) %MON dynstat_eta_mean             =  -5.0450132326992E-10
(PID.TID 0000.0001) %MON dynstat_eta_sd               =   2.6561816187860E-02
(PID.TID 0000.0001) %MON dynstat_eta_del2             =   1.6851584573165E-07
(PID.TID 0000.0001) %MON dynstat_uvel_max             =   2.4344309989042E-02
(PID.TID 0000.0001) %MON dynstat_uvel_min             =  -2.6703517961485E-02
(PID.TID 0000.0001) %MON dynstat_uvel_mean            =   4.9789306455361E-07
(PID.TID 0000.0001) %MON dynstat_uvel_sd              =   1.0203452276146E-02
(PID.TID 0000.0001) %MON dynstat_uvel_del2            =   3.2633178660445E-07
(PID.TID 0000.0001) %MON dynstat_vvel_max             =   2.8341161271561E-02
(PID.TID 0000.0001) %MON dynstat_vvel_min             =  -2.5300812605049E-02
(PID.TID 0000.0001) %MON dynstat_vvel_mean            =  -1.4882710897475E-07
(PID.TID 0000.0001) %MON dynstat_vvel_sd              =   1.0880413219005E-02
(PID.TID 0000.0001) %MON dynstat_vvel_del2            =   4.6550914922918E-07
(PID.TID 0000.0001) %MON dynstat_wvel_max             =   2.1133259341877E-08
(PID.TID 0000.0001) %MON dynstat_wvel_min             =  -4.9746285369620E-08
(PID.TID 0000.0001) %MON dynstat_wvel_mean            =  -1.6973627474135E-23
(PID.TID 0000.0001) %MON dynstat_wvel_sd              =   1.7042739624916E-08
(PID.TID 0000.0001) %MON dynstat_wvel_del2            =   9.7218852471421E-14
(PID.TID 0000.0001) %MON dynstat_theta_max            =   2.0000000000000E+01
(PID.TID 0000.0001) %MON dynstat_theta_min            =   2.0000000000000E+01
(PID.TID 0000.0001) %MON dynstat_theta_mean           =   1.9999999999999E+01
(PID.TID 0000.0001) %MON dynstat_theta_sd             =   1.1972645097557E-12
(PID.TID 0000.0001) %MON dynstat_theta_del2           =   0.0000000000000E+00
(PID.TID 0000.0001) %MON dynstat_salt_max             =   3.0000000000000E+01
(PID.TID 0000.0001) %MON dynstat_salt_min             =   3.0000000000000E+01
(PID.TID 0000.0001) %MON dynstat_salt_mean            =   2.9999999999998E+01
(PID.TID 0000.0001) %MON dynstat_salt_sd              =   2.1529444893531E-12
(PID.TID 0000.0001) %MON dynstat_salt_del2            =   0.0000000000000E+00
(PID.TID 0000.0001) %MON trAdv_CFL_u_max              =   6.4058030935546E-03
(PID.TID 0000.0001) %MON trAdv_CFL_v_max              =   6.8062568260025E-03
(PID.TID 0000.0001) %MON trAdv_CFL_w_max              =   5.2786657186255E-09
(PID.TID 0000.0001) %MON advcfl_uvel_max              =   6.4088443107564E-03
(PID.TID 0000.0001) %MON advcfl_vvel_max              =   6.8018787051747E-03
(PID.TID 0000.0001) %MON advcfl_wvel_max              =   2.3878216977417E-08
(PID.TID 0000.0001) %MON advcfl_W_hf_max              =   0.0000000000000E+00
(PID.TID 0000.0001) %MON pe_b_mean                    =   7.2185390598069E-07
(PID.TID 0000.0001) %MON ke_max                       =   4.0158108161860E-04
(PID.TID 0000.0001) %MON ke_mean                      =   1.1074615051625E-04
(PID.TID 0000.0001) %MON ke_vol                       =   7.2529629296391E+15
(PID.TID 0000.0001) %MON vort_r_min                   =  -9.7225625369574E-07
(PID.TID 0000.0001) %MON vort_r_max                   =   1.2785803762142E-06
(PID.TID 0000.0001) %MON vort_a_mean                  =   1.0615000000000E-04
(PID.TID 0000.0001) %MON vort_a_sd                    =   3.5695072985541E-06
(PID.TID 0000.0001) %MON vort_p_mean                  =   1.1210870169429E-04
(PID.TID 0000.0001) %MON vort_p_sd                    =   2.1054787617730E-05
(PID.TID 0000.0001) %MON surfExpan_theta_mean         =  -1.6230376007930E-22
(PID.TID 0000.0001) %MON surfExpan_salt_mean          =   3.8051068747801E-22
(PID.TID 0000.0001) // =======================================================
(PID.TID 0000.0001) // End MONITOR dynamic field statistics
(PID.TID 0000.0001) // =======================================================
 cg2d: Sum(rhs),rhsMax =   3.02240760331179E-05  3.50762522594046E-03
 cg2d: Sum(rhs),rhsMax =   3.02684036549289E-05  3.50386251608695E-03
 cg2d: Sum(rhs),rhsMax =   3.03127802109473E-05  3.50010010774930E-03
 cg2d: Sum(rhs),rhsMax =   3.03572677145866E-05  3.49633803249073E-03
 cg2d: Sum(rhs),rhsMax =   3.04018412414404E-05  3.49257631792708E-03
 cg2d: Sum(rhs),rhsMax =   3.04464922947553E-05  3.48881499545292E-03
 cg2d: Sum(rhs),rhsMax =   3.04912260794560E-05  3.48505409295236E-03
 cg2d: Sum(rhs),rhsMax =   3.05360280393012E-05  3.48129364146823E-03
 cg2d: Sum(rhs),rhsMax =   3.05809381596096E-05  3.47753366940455E-03
 cg2d: Sum(rhs),rhsMax =   3.06258262907609E-05  3.47378477417375E-03
 cg2d: Sum(rhs),rhsMax =   3.06706662577729E-05  3.47005182297524E-03
 cg2d: Sum(rhs),rhsMax =   3.07155990421464E-05  3.46631961543460E-03
 cg2d: Sum(rhs),rhsMax =   3.07606061444431E-05  3.46258817758238E-03
 cg2d: Sum(rhs),rhsMax =   3.08057050109126E-05  3.45885754184588E-03
 cg2d: Sum(rhs),rhsMax =   3.08508690160265E-05  3.45512773478345E-03
 cg2d: Sum(rhs),rhsMax =   3.08961121398537E-05  3.45139878939979E-03
 cg2d: Sum(rhs),rhsMax =   3.09414454967519E-05  3.44767073203306E-03
 cg2d: Sum(rhs),rhsMax =   3.09868503630319E-05  3.44394359459446E-03
 cg2d: Sum(rhs),rhsMax =   3.10323360829274E-05  3.44021740394706E-03
 cg2d: Sum(rhs),rhsMax =   3.10779074043192E-05  3.43649219248009E-03
 cg2d: Sum(rhs),rhsMax =   3.11235589857111E-05  3.43276798672897E-03
 cg2d: Sum(rhs),rhsMax =   3.11692763442818E-05  3.42904481881047E-03
 cg2d: Sum(rhs),rhsMax =   3.12150919076267E-05  3.42532271554035E-03
 cg2d: Sum(rhs),rhsMax =   3.12609811640181E-05  3.42160170881372E-03
 cg2d: Sum(rhs),rhsMax =   3.13069479316638E-05  3.41788182586242E-03
 cg2d: Sum(rhs),rhsMax =   3.13530084339580E-05  3.41416309747160E-03
 cg2d: Sum(rhs),rhsMax =   3.13991365730234E-05  3.41044555229391E-03
 cg2d: Sum(rhs),rhsMax =   3.14453316567227E-05  3.40672922008122E-03
 cg2d: Sum(rhs),rhsMax =   3.14916047879261E-05  3.40301412976736E-03
 cg2d: Sum(rhs),rhsMax =   3.15379668407115E-05  3.39930031146509E-03
 cg2d: Sum(rhs),rhsMax =   3.15844336835850E-05  3.39558779348850E-03
 cg2d: Sum(rhs),rhsMax =   3.16309560611100E-05  3.39187660584454E-03
 cg2d: Sum(rhs),rhsMax =   3.16775605143371E-05  3.38816677703442E-03
 cg2d: Sum(rhs),rhsMax =   3.17242414017097E-05  3.38445833771320E-03
 cg2d: Sum(rhs),rhsMax =   3.17709776412010E-05  3.38075131593734E-03
 cg2d: Sum(rhs),rhsMax =   3.18175939370696E-05  3.37707043823680E-03
 cg2d: Sum(rhs),rhsMax =   3.18642030276896E-05  3.37339859021300E-03
 cg2d: Sum(rhs),rhsMax =   3.19108881350130E-05  3.36972841839483E-03
 cg2d: Sum(rhs),rhsMax =   3.19576484847702E-05  3.36605995251295E-03
 cg2d: Sum(rhs),rhsMax =   3.20044705439376E-05  3.36239322020938E-03
 cg2d: Sum(rhs),rhsMax =   3.20513615410956E-05  3.35872825225909E-03
 cg2d: Sum(rhs),rhsMax =   3.20983375570703E-05  3.35506507684416E-03
 cg2d: Sum(rhs),rhsMax =   3.21454136825161E-05  3.35140372393811E-03
 cg2d: Sum(rhs),rhsMax =   3.21925376416000E-05  3.34774422136888E-03
 cg2d: Sum(rhs),rhsMax =   3.22397481887522E-05  3.34408659940661E-03
 cg2d: Sum(rhs),rhsMax =   3.22870331043688E-05  3.34043088628496E-03
 cg2d: Sum(rhs),rhsMax =   3.23343770337343E-05  3.33677711206200E-03
 cg2d: Sum(rhs),rhsMax =   3.23817797455092E-05  3.33312530389251E-03
 cg2d: Sum(rhs),rhsMax =   3.24292986765302E-05  3.32947549291228E-03
 cg2d: Sum(rhs),rhsMax =   3.24768557783770E-05  3.32582770629418E-03
 cg2d: Sum(rhs),rhsMax =   3.25244909421749E-05  3.32218197457784E-03
 cg2d: Sum(rhs),rhsMax =   3.25721874666843E-05  3.31853832525122E-03
 cg2d: Sum(rhs),rhsMax =   3.26199505531876E-05  3.31489678890215E-03
 cg2d: Sum(rhs),rhsMax =   3.26678252371444E-05  3.31125739248853E-03
 cg2d: Sum(rhs),rhsMax =   3.27157424238229E-05  3.30762016682787E-03
 cg2d: Sum(rhs),rhsMax =   3.27635761579546E-05  3.30400222739614E-03
 cg2d: Sum(rhs),rhsMax =   3.28112782200327E-05  3.30040672289200E-03
 cg2d: Sum(rhs),rhsMax =   3.28590435695660E-05  3.29681364086003E-03
 cg2d: Sum(rhs),rhsMax =   3.29068560147722E-05  3.29322301079445E-03
 cg2d: Sum(rhs),rhsMax =   3.29547700762458E-05  3.28963486094080E-03
 cg2d: Sum(rhs),rhsMax =   3.30027306727782E-05  3.28604922067057E-03
 cg2d: Sum(rhs),rhsMax =   3.30507582032413E-05  3.28246611766609E-03
 cg2d: Sum(rhs),rhsMax =   3.30988749056467E-05  3.27888558166471E-03
 cg2d: Sum(rhs),rhsMax =   3.31470310044688E-05  3.27530764013712E-03
 cg2d: Sum(rhs),rhsMax =   3.31952720512164E-05  3.27173232285407E-03
 cg2d: Sum(rhs),rhsMax =   3.32435682762356E-05  3.26815965722243E-03
 cg2d: Sum(rhs),rhsMax =   3.32919236580246E-05  3.26458967294369E-03
 cg2d: Sum(rhs),rhsMax =   3.33403453709608E-05  3.26102239745954E-03
 cg2d: Sum(rhs),rhsMax =   3.33888346108358E-05  3.25745786039761E-03
 cg2d: Sum(rhs),rhsMax =   3.34373793419180E-05  3.25389608918526E-03
 cg2d: Sum(rhs),rhsMax =   3.34859781386376E-05  3.25033711320405E-03
 cg2d: Sum(rhs),rhsMax =   3.35346698246679E-05  3.24678096028413E-03
(PID.TID 0000.0001)      cg2d_init_res =   2.99244289257633E-02
(PID.TID 0000.0001)      cg2d_iters(min,last) =      -1     408
(PID.TID 0000.0001)      cg2d_last_res =   9.86683271833703E-08
(PID.TID 0000.0001) // =======================================================
(PID.TID 0000.0001) // Begin MONITOR dynamic field statistics
(PID.TID 0000.0001) // =======================================================
(PID.TID 0000.0001) %MON time_tsnumber                =                  1728
(PID.TID 0000.0001) %MON time_secondsf                =   2.0736000000000E+06
(PID.TID 0000.0001) %MON dynstat_eta_max              =   4.1479166070041E-02
(PID.TID 0000.0001) %MON dynstat_eta_min              =  -6.6746620556699E-02
(PID.TID 0000.0001) %MON dynstat_eta_mean             =  -5.1832051602673E-10
(PID.TID 0000.0001) %MON dynstat_eta_sd               =   2.7167979804891E-02
(PID.TID 0000.0001) %MON dynstat_eta_del2             =   1.6987909524178E-07
(PID.TID 0000.0001) %MON dynstat_uvel_max             =   2.5389994489766E-02
(PID.TID 0000.0001) %MON dynstat_uvel_min             =  -2.7632925457488E-02
(PID.TID 0000.0001) %MON dynstat_uvel_mean            =   5.0841658970031E-07
(PID.TID 0000.0001) %MON dynstat_uvel_sd              =   1.0549060495550E-02
(PID.TID 0000.0001) %MON dynstat_uvel_del2            =   3.3585789272028E-07
(PID.TID 0000.0001) %MON dynstat_vvel_max             =   2.6873128747257E-02
(PID.TID 0000.0001) %MON dynstat_vvel_min             =  -2.5599482510864E-02
(PID.TID 0000.0001) %MON dynstat_vvel_mean            =  -2.2951385784765E-07
(PID.TID 0000.0001) %MON dynstat_vvel_sd              =   1.0978014049311E-02
(PID.TID 0000.0001) %MON dynstat_vvel_del2            =   4.4888242339823E-07
(PID.TID 0000.0001) %MON dynstat_wvel_max             =   2.2527912248042E-08
(PID.TID 0000.0001) %MON dynstat_wvel_min             =  -4.9449543780647E-08
(PID.TID 0000.0001) %MON dynstat_wvel_mean            =  -6.2269643757910E-22
(PID.TID 0000.0001) %MON dynstat_wvel_sd              =   1.6817337985643E-08
(PID.TID 0000.0001) %MON dynstat_wvel_del2            =   9.9374123698029E-14
(PID.TID 0000.0001) %MON dynstat_theta_max            =   2.0000000000000E+01
(PID.TID 0000.0001) %MON dynstat_theta_min            =   2.0000000000000E+01
(PID.TID 0000.0001) %MON dynstat_theta_mean           =   1.9999999999999E+01
(PID.TID 0000.0001) %MON dynstat_theta_sd             =   1.1972645097557E-12
(PID.TID 0000.0001) %MON dynstat_theta_del2           =   0.0000000000000E+00
(PID.TID 0000.0001) %MON dynstat_salt_max             =   3.0000000000000E+01
(PID.TID 0000.0001) %MON dynstat_salt_min             =   3.0000000000000E+01
(PID.TID 0000.0001) %MON dynstat_salt_mean            =   2.9999999999998E+01
(PID.TID 0000.0001) %MON dynstat_salt_sd              =   2.1529444893531E-12
(PID.TID 0000.0001) %MON dynstat_salt_del2            =   0.0000000000000E+00
(PID.TID 0000.0001) %MON trAdv_CFL_u_max              =   6.6287751023732E-03
(PID.TID 0000.0001) %MON trAdv_CFL_v_max              =   6.4544317338628E-03
(PID.TID 0000.0001) %MON trAdv_CFL_w_max              =   5.6506690225944E-09
(PID.TID 0000.0001) %MON advcfl_uvel_max              =   6.6319021097971E-03
(PID.TID 0000.0001) %MON advcfl_vvel_max              =   6.4495508993416E-03
(PID.TID 0000.0001) %MON advcfl_wvel_max              =   2.3735781014711E-08
(PID.TID 0000.0001) %MON advcfl_W_hf_max              =   0.0000000000000E+00
(PID.TID 0000.0001) %MON pe_b_mean                    =   7.5517650246752E-07
(PID.TID 0000.0001) %MON ke_max                       =   3.8182733387087E-04
(PID.TID 0000.0001) %MON ke_mean                      =   1.1537802624287E-04
(PID.TID 0000.0001) %MON ke_vol                       =   7.2529629296391E+15
(PID.TID 0000.0001) %MON vort_r_min                   =  -9.9871056133060E-07
(PID.TID 0000.0001) %MON vort_r_max                   =   1.1920945495836E-06
(PID.TID 0000.0001) %MON vort_a_mean                  =   1.0615000000000E-04
(PID.TID 0000.0001) %MON vort_a_sd                    =   3.5695625207954E-06
(PID.TID 0000.0001) %MON vort_p_mean                  =   1.1210870169429E-04
(PID.TID 0000.0001) %MON vort_p_sd                    =   2.1054864655171E-05
(PID.TID 0000.0001) %MON surfExpan_theta_mean         =  -1.2852703163037E-20
(PID.TID 0000.0001) %MON surfExpan_salt_mean          =  -1.8858318010862E-20
(PID.TID 0000.0001) // =======================================================
(PID.TID 0000.0001) // End MONITOR dynamic field statistics
(PID.TID 0000.0001) // =======================================================
 cg2d: Sum(rhs),rhsMax =   3.35832885504650E-05  3.24323955830308E-03
 cg2d: Sum(rhs),rhsMax =   3.36316550350116E-05  3.23973076160506E-03
 cg2d: Sum(rhs),rhsMax =   3.36801028540321E-05  3.23622503487721E-03
 cg2d: Sum(rhs),rhsMax =   3.37285785707801E-05  3.23272240661206E-03
 cg2d: Sum(rhs),rhsMax =   3.37771143004654E-05  3.22922290487677E-03
 cg2d: Sum(rhs),rhsMax =   3.38257251264931E-05  3.22572655764167E-03
 cg2d: Sum(rhs),rhsMax =   3.38743848467618E-05  3.22223339334652E-03
 cg2d: Sum(rhs),rhsMax =   3.39231011654510E-05  3.21874344038009E-03
 cg2d: Sum(rhs),rhsMax =   3.39718962518668E-05  3.21525672614547E-03
 cg2d: Sum(rhs),rhsMax =   3.40207002084529E-05  3.21177327955113E-03
 cg2d: Sum(rhs),rhsMax =   3.40695888032851E-05  3.20829312777020E-03
 cg2d: Sum(rhs),rhsMax =   3.41185173425417E-05  3.20481629978304E-03
 cg2d: Sum(rhs),rhsMax =   3.41675335605914E-05  3.20134282262072E-03
 cg2d: Sum(rhs),rhsMax =   3.42165794634790E-05  3.19787272492003E-03
 cg2d: Sum(rhs),rhsMax =   3.42656838539738E-05  3.19440603506011E-03
 cg2d: Sum(rhs),rhsMax =   3.43147679366211E-05  3.19094948882298E-03
 cg2d: Sum(rhs),rhsMax =   3.43634823389803E-05  3.18753510705038E-03
 cg2d: Sum(rhs),rhsMax =   3.44122332804724E-05  3.18412437182193E-03
 cg2d: Sum(rhs),rhsMax =   3.44610320867356E-05  3.18071731082684E-03
 cg2d: Sum(rhs),rhsMax =   3.45098918057042E-05  3.17731395205434E-03
 cg2d: Sum(rhs),rhsMax =   3.45588141359831E-05  3.17391432330030E-03
 cg2d: Sum(rhs),rhsMax =   3.46077541610867E-05  3.17051845186169E-03
 cg2d: Sum(rhs),rhsMax =   3.46567647670076E-05  3.16712636523836E-03
 cg2d: Sum(rhs),rhsMax =   3.47058337967117E-05  3.16373809115758E-03
 cg2d: Sum(rhs),rhsMax =   3.47549238281959E-05  3.16035365713694E-03
 cg2d: Sum(rhs),rhsMax =   3.48040551109360E-05  3.15697309071972E-03
 cg2d: Sum(rhs),rhsMax =   3.48532295278547E-05  3.15359641985818E-03
 cg2d: Sum(rhs),rhsMax =   3.48611809972681E-05  3.15395453142044E-03
 cg2d: Sum(rhs),rhsMax =   3.48592610686892E-05  3.15520559222311E-03
 cg2d: Sum(rhs),rhsMax =   3.48572809796433E-05  3.15645756738562E-03
 cg2d: Sum(rhs),rhsMax =   3.48553150530534E-05  3.15771045522073E-03
 cg2d: Sum(rhs),rhsMax =   3.48532893074353E-05  3.15896425628747E-03
 cg2d: Sum(rhs),rhsMax =   3.48512479218382E-05  3.16021896838233E-03
 cg2d: Sum(rhs),rhsMax =   3.48491700946814E-05  3.16147459229142E-03
 cg2d: Sum(rhs),rhsMax =   3.48470580413332E-05  3.16273112617936E-03
 cg2d: Sum(rhs),rhsMax =   3.48449253363813E-05  3.16398857035878E-03
 cg2d: Sum(rhs),rhsMax =   3.48427759973829E-05  3.16524692296983E-03
 cg2d: Sum(rhs),rhsMax =   3.48405847348104E-05  3.16650618451358E-03
 cg2d: Sum(rhs),rhsMax =   3.48383849809626E-05  3.16776635305167E-03
 cg2d: Sum(rhs),rhsMax =   3.48361479631520E-05  3.16902742916532E-03
 cg2d: Sum(rhs),rhsMax =   3.48338864186466E-05  3.17028941047751E-03
 cg2d: Sum(rhs),rhsMax =   3.48316171229421E-05  3.17155229829082E-03
 cg2d: Sum(rhs),rhsMax =   3.48293053154848E-05  3.17281609018425E-03
 cg2d: Sum(rhs),rhsMax =   3.48269694852004E-05  3.17408078663081E-03
 cg2d: Sum(rhs),rhsMax =   3.48246099178325E-05  3.17534638543239E-03
 cg2d: Sum(rhs),rhsMax =   3.48222001507904E-05  3.17661288732510E-03
 cg2d: Sum(rhs),rhsMax =   3.48197599915803E-05  3.17788029023054E-03
 cg2d: Sum(rhs),rhsMax =   3.48173231084926E-05  3.17914859464891E-03
 cg2d: Sum(rhs),rhsMax =   3.48148532069055E-05  3.18041779864368E-03
 cg2d: Sum(rhs),rhsMax =   3.48123429567849E-05  3.18168790250807E-03
 cg2d: Sum(rhs),rhsMax =   3.48098265991730E-05  3.18295890453934E-03
 cg2d: Sum(rhs),rhsMax =   3.48072571622841E-05  3.18423080463107E-03
 cg2d: Sum(rhs),rhsMax =   3.48046581548651E-05  3.18550360179627E-03
 cg2d: Sum(rhs),rhsMax =   3.48019721344590E-05  3.18678495842869E-03
 cg2d: Sum(rhs),rhsMax =   3.47992201569017E-05  3.18806799545201E-03
 cg2d: Sum(rhs),rhsMax =   3.47964634007224E-05  3.18935193022581E-03
 cg2d: Sum(rhs),rhsMax =   3.47936675460254E-05  3.19063676136303E-03
 cg2d: Sum(rhs),rhsMax =   3.47908517374321E-05  3.19192248847361E-03
 cg2d: Sum(rhs),rhsMax =   3.47879921915057E-05  3.19320911012674E-03
 cg2d: Sum(rhs),rhsMax =   3.47851217683028E-05  3.19449662598825E-03
 cg2d: Sum(rhs),rhsMax =   3.47822266558613E-05  3.19578503470748E-03
 cg2d: Sum(rhs),rhsMax =   3.47792959871553E-05  3.19707433591332E-03
 cg2d: Sum(rhs),rhsMax =   3.47763423408573E-05  3.19836452830904E-03
 cg2d: Sum(rhs),rhsMax =   3.47733650765611E-05  3.19965561134585E-03
 cg2d: Sum(rhs),rhsMax =   3.47703528060690E-05  3.20094758398209E-03
 cg2d: Sum(rhs),rhsMax =   3.47673273174004E-05  3.20224044528575E-03
 cg2d: Sum(rhs),rhsMax =   3.47642577115254E-05  3.20353419426821E-03
 cg2d: Sum(rhs),rhsMax =   3.47611622087875E-05  3.20482883047247E-03
 cg2d: Sum(rhs),rhsMax =   3.47580355382505E-05  3.20612435261507E-03
 cg2d: Sum(rhs),rhsMax =   3.47549050229053E-05  3.20742076012906E-03
 cg2d: Sum(rhs),rhsMax =   3.47517209668396E-05  3.20871805188661E-03
 cg2d: Sum(rhs),rhsMax =   3.47485234745825E-05  3.21001622677381E-03
(PID.TID 0000.0001)      cg2d_init_res =   3.06292349157772E-02
(PID.TID 0000.0001)      cg2d_iters(min,last) =      -1     408
(PID.TID 0000.0001)      cg2d_last_res =   9.31049316723292E-08
(PID.TID 0000.0001) // =======================================================
(PID.TID 0000.0001) // Begin MONITOR dynamic field statistics
(PID.TID 0000.0001) // =======================================================
(PID.TID 0000.0001) %MON time_tsnumber                =                  1800
(PID.TID 0000.0001) %MON time_secondsf                =   2.1600000000000E+06
(PID.TID 0000.0001) %MON dynstat_eta_max              =   4.0225621607018E-02
(PID.TID 0000.0001) %MON dynstat_eta_min              =  -6.8368458609442E-02
(PID.TID 0000.0001) %MON dynstat_eta_mean             =  -5.3097610924984E-10
(PID.TID 0000.0001) %MON dynstat_eta_sd               =   2.7800274406690E-02
(PID.TID 0000.0001) %MON dynstat_eta_del2             =   1.7128881543288E-07
(PID.TID 0000.0001) %MON dynstat_uvel_max             =   2.6422553149376E-02
(PID.TID 0000.0001) %MON dynstat_uvel_min             =  -2.8585511350570E-02
(PID.TID 0000.0001) %MON dynstat_uvel_mean            =   5.0026506893462E-07
(PID.TID 0000.0001) %MON dynstat_uvel_sd              =   1.0911187209130E-02
(PID.TID 0000.0001) %MON dynstat_uvel_del2            =   3.4729466442089E-07
(PID.TID 0000.0001) %MON dynstat_vvel_max             =   2.5290650951857E-02
(PID.TID 0000.0001) %MON dynstat_vvel_min             =  -2.5849906382345E-02
(PID.TID 0000.0001) %MON dynstat_vvel_mean            =  -3.0922656403438E-07
(PID.TID 0000.0001) %MON dynstat_vvel_sd              =   1.1060169884074E-02
(PID.TID 0000.0001) %MON dynstat_vvel_del2            =   4.3439296495911E-07
(PID.TID 0000.0001) %MON dynstat_wvel_max             =   2.4372672502359E-08
(PID.TID 0000.0001) %MON dynstat_wvel_min             =  -4.8805288090371E-08
(PID.TID 0000.0001) %MON dynstat_wvel_mean            =   2.6146418677820E-21
(PID.TID 0000.0001) %MON dynstat_wvel_sd              =   1.6587732000213E-08
(PID.TID 0000.0001) %MON dynstat_wvel_del2            =   1.0140734634297E-13
(PID.TID 0000.0001) %MON dynstat_theta_max            =   2.0000000000000E+01
(PID.TID 0000.0001) %MON dynstat_theta_min            =   2.0000000000000E+01
(PID.TID 0000.0001) %MON dynstat_theta_mean           =   1.9999999999999E+01
(PID.TID 0000.0001) %MON dynstat_theta_sd             =   1.1972645097557E-12
(PID.TID 0000.0001) %MON dynstat_theta_del2           =   0.0000000000000E+00
(PID.TID 0000.0001) %MON dynstat_salt_max             =   3.0000000000000E+01
(PID.TID 0000.0001) %MON dynstat_salt_min             =   3.0000000000000E+01
(PID.TID 0000.0001) %MON dynstat_salt_mean            =   2.9999999999998E+01
(PID.TID 0000.0001) %MON dynstat_salt_sd              =   2.1529444893531E-12
(PID.TID 0000.0001) %MON dynstat_salt_del2            =   0.0000000000000E+00
(PID.TID 0000.0001) %MON trAdv_CFL_u_max              =   6.8572978953276E-03
(PID.TID 0000.0001) %MON trAdv_CFL_v_max              =   6.2020624535630E-03
(PID.TID 0000.0001) %MON trAdv_CFL_w_max              =   6.1315923796732E-09
(PID.TID 0000.0001) %MON advcfl_uvel_max              =   6.8605227241368E-03
(PID.TID 0000.0001) %MON advcfl_vvel_max              =   6.2039775317627E-03
(PID.TID 0000.0001) %MON advcfl_wvel_max              =   2.3426538283378E-08
(PID.TID 0000.0001) %MON advcfl_W_hf_max              =   0.0000000000000E+00
(PID.TID 0000.0001) %MON pe_b_mean                    =   7.9073678434883E-07
(PID.TID 0000.0001) %MON ke_max                       =   4.0860940318721E-04
(PID.TID 0000.0001) %MON ke_mean                      =   1.2014740756938E-04
(PID.TID 0000.0001) %MON ke_vol                       =   7.2529629296391E+15
(PID.TID 0000.0001) %MON vort_r_min                   =  -1.0270561908011E-06
(PID.TID 0000.0001) %MON vort_r_max                   =   1.1114108852038E-06
(PID.TID 0000.0001) %MON vort_a_mean                  =   1.0615000000000E-04
(PID.TID 0000.0001) %MON vort_a_sd                    =   3.5696311861579E-06
(PID.TID 0000.0001) %MON vort_p_mean                  =   1.1210870169429E-04
(PID.TID 0000.0001) %MON vort_p_sd                    =   2.1054898570058E-05
(PID.TID 0000.0001) %MON surfExpan_theta_mean         =   5.1741323749665E-20
(PID.TID 0000.0001) %MON surfExpan_salt_mean          =   7.8363698415263E-20
(PID.TID 0000.0001) // =======================================================
(PID.TID 0000.0001) // End MONITOR dynamic field statistics
(PID.TID 0000.0001) // =======================================================
 cg2d: Sum(rhs),rhsMax =   3.47452952067107E-05  3.21131528399607E-03
 cg2d: Sum(rhs),rhsMax =   3.47420290779995E-05  3.21261522300568E-03
 cg2d: Sum(rhs),rhsMax =   3.47387382165897E-05  3.21391604231811E-03
 cg2d: Sum(rhs),rhsMax =   3.47354444553173E-05  3.21521774152975E-03
 cg2d: Sum(rhs),rhsMax =   3.47321136027669E-05  3.21652031907560E-03
 cg2d: Sum(rhs),rhsMax =   3.47287375136660E-05  3.21782377472356E-03
 cg2d: Sum(rhs),rhsMax =   3.47253503220225E-05  3.21912810680582E-03
 cg2d: Sum(rhs),rhsMax =   3.47219187589367E-05  3.22043331515987E-03
 cg2d: Sum(rhs),rhsMax =   3.47184776119773E-05  3.22173939792147E-03
 cg2d: Sum(rhs),rhsMax =   3.47150119078248E-05  3.22304635500109E-03
 cg2d: Sum(rhs),rhsMax =   3.47115112625789E-05  3.22435418481674E-03
 cg2d: Sum(rhs),rhsMax =   3.47079969350884E-05  3.22566288679832E-03
 cg2d: Sum(rhs),rhsMax =   3.47044461546046E-05  3.22697245961359E-03
 cg2d: Sum(rhs),rhsMax =   3.47008649982886E-05  3.22828290254957E-03
 cg2d: Sum(rhs),rhsMax =   3.46972653069762E-05  3.22959421444253E-03
 cg2d: Sum(rhs),rhsMax =   3.46936592861211E-05  3.23090639453111E-03
 cg2d: Sum(rhs),rhsMax =   3.46900091575311E-05  3.23221944174064E-03
 cg2d: Sum(rhs),rhsMax =   3.46863225058457E-05  3.23353335472125E-03
 cg2d: Sum(rhs),rhsMax =   3.46826208202245E-05  3.23484813269806E-03
 cg2d: Sum(rhs),rhsMax =   3.46789013581927E-05  3.23616377500258E-03
 cg2d: Sum(rhs),rhsMax =   3.46751640851479E-05  3.23748028014075E-03
 cg2d: Sum(rhs),rhsMax =   3.46713910076915E-05  3.23879764749474E-03
 cg2d: Sum(rhs),rhsMax =   3.46691319782315E-05  3.24011587506174E-03
 cg2d: Sum(rhs),rhsMax =   3.46668308416533E-05  3.24143496342044E-03
 cg2d: Sum(rhs),rhsMax =   3.46645042314069E-05  3.24275491029821E-03
 cg2d: Sum(rhs),rhsMax =   3.46621549489282E-05  3.24407571552442E-03
 cg2d: Sum(rhs),rhsMax =   3.46597788437718E-05  3.24539737712531E-03
 cg2d: Sum(rhs),rhsMax =   3.46573646413714E-05  3.24671989502276E-03
 cg2d: Sum(rhs),rhsMax =   3.46549195069136E-05  3.24804326719941E-03
 cg2d: Sum(rhs),rhsMax =   3.46540158654030E-05  3.24936749313471E-03
 cg2d: Sum(rhs),rhsMax =   3.46531069363911E-05  3.25069257189957E-03
 cg2d: Sum(rhs),rhsMax =   3.46521447545378E-05  3.25201850226481E-03
 cg2d: Sum(rhs),rhsMax =   3.46511322007435E-05  3.25334831714495E-03
 cg2d: Sum(rhs),rhsMax =   3.46500284741751E-05  3.25468430125768E-03
 cg2d: Sum(rhs),rhsMax =   3.46488908876137E-05  3.25602113465164E-03
 cg2d: Sum(rhs),rhsMax =   3.46477383960826E-05  3.25735881774400E-03
 cg2d: Sum(rhs),rhsMax =   3.46465557485385E-05  3.25869734797244E-03
 cg2d: Sum(rhs),rhsMax =   3.46453386792164E-05  3.26003672563823E-03
 cg2d: Sum(rhs),rhsMax =   3.46440895755851E-05  3.26137694824975E-03
 cg2d: Sum(rhs),rhsMax =   3.46428464462461E-05  3.26271801594699E-03
 cg2d: Sum(rhs),rhsMax =   3.46415267569681E-05  3.26405992638654E-03
 cg2d: Sum(rhs),rhsMax =   3.46401935293183E-05  3.26540267958196E-03
 cg2d: Sum(rhs),rhsMax =   3.46388583213411E-05  3.26674627333236E-03
 cg2d: Sum(rhs),rhsMax =   3.46374765078494E-05  3.26809070739033E-03
 cg2d: Sum(rhs),rhsMax =   3.46360803981788E-05  3.26943598007577E-03
 cg2d: Sum(rhs),rhsMax =   3.46346821185235E-05  3.27078209066180E-03
 cg2d: Sum(rhs),rhsMax =   3.46332419438756E-05  3.27212903738744E-03
 cg2d: Sum(rhs),rhsMax =   3.46317612598297E-05  3.27347681950707E-03
 cg2d: Sum(rhs),rhsMax =   3.46302651133903E-05  3.27482543546439E-03
 cg2d: Sum(rhs),rhsMax =   3.46287361284274E-05  3.27617488452649E-03
 cg2d: Sum(rhs),rhsMax =   3.46271990377487E-05  3.27752516581202E-03
 cg2d: Sum(rhs),rhsMax =   3.46256260410210E-05  3.27887627792715E-03
 cg2d: Sum(rhs),rhsMax =   3.46240302936708E-05  3.28022821872950E-03
 cg2d: Sum(rhs),rhsMax =   3.46224141084400E-05  3.28158098804078E-03
 cg2d: Sum(rhs),rhsMax =   3.46207649077074E-05  3.28293458459570E-03
 cg2d: Sum(rhs),rhsMax =   3.46208479316303E-05  3.28428900712233E-03
 cg2d: Sum(rhs),rhsMax =   3.46208951254659E-05  3.28564425433258E-03
 cg2d: Sum(rhs),rhsMax =   3.46209022088779E-05  3.28700032478534E-03
 cg2d: Sum(rhs),rhsMax =   3.46208592526126E-05  3.28835721761297E-03
 cg2d: Sum(rhs),rhsMax =   3.46207722908033E-05  3.28971493139952E-03
 cg2d: Sum(rhs),rhsMax =   3.46206159299502E-05  3.29107346516833E-03
 cg2d: Sum(rhs),rhsMax =   3.46204184385971E-05  3.29243281742703E-03
 cg2d: Sum(rhs),rhsMax =   3.46201696309906E-05  3.29379298729522E-03
 cg2d: Sum(rhs),rhsMax =   3.46198341441527E-05  3.29515397315314E-03
 cg2d: Sum(rhs),rhsMax =   3.46194435273030E-05  3.29651577419355E-03
 cg2d: Sum(rhs),rhsMax =   3.46189648231295E-05  3.29787838873938E-03
 cg2d: Sum(rhs),rhsMax =   3.46183567382936E-05  3.29924181600630E-03
 cg2d: Sum(rhs),rhsMax =   3.46211341777994E-05  3.30060605307424E-03
 cg2d: Sum(rhs),rhsMax =   3.46237176110584E-05  3.30197110166508E-03
 cg2d: Sum(rhs),rhsMax =   3.46260703928576E-05  3.30333695878032E-03
 cg2d: Sum(rhs),rhsMax =   3.46281367395417E-05  3.30470362356046E-03
 cg2d: Sum(rhs),rhsMax =   3.46334862985631E-05  3.30607109525229E-03
(PID.TID 0000.0001)      cg2d_init_res =   2.99468295061432E-02
(PID.TID 0000.0001)      cg2d_iters(min,last) =      -1     401
(PID.TID 0000.0001)      cg2d_last_res =   9.68412611680821E-08
(PID.TID 0000.0001) // =======================================================
(PID.TID 0000.0001) // Begin MONITOR dynamic field statistics
(PID.TID 0000.0001) // =======================================================
(PID.TID 0000.0001) %MON time_tsnumber                =                  1872
(PID.TID 0000.0001) %MON time_secondsf                =   2.2464000000000E+06
(PID.TID 0000.0001) %MON dynstat_eta_max              =   3.8908248077142E-02
(PID.TID 0000.0001) %MON dynstat_eta_min              =  -6.9984716786450E-02
(PID.TID 0000.0001) %MON dynstat_eta_mean             =  -5.4518626283870E-10
(PID.TID 0000.0001) %MON dynstat_eta_sd               =   2.8463620952898E-02
(PID.TID 0000.0001) %MON dynstat_eta_del2             =   1.7286691408547E-07
(PID.TID 0000.0001) %MON dynstat_uvel_max             =   2.7433634004274E-02
(PID.TID 0000.0001) %MON dynstat_uvel_min             =  -2.9564240784107E-02
(PID.TID 0000.0001) %MON dynstat_uvel_mean            =   4.7495423656242E-07
(PID.TID 0000.0001) %MON dynstat_uvel_sd              =   1.1288293118060E-02
(PID.TID 0000.0001) %MON dynstat_uvel_del2            =   3.6052521603343E-07
(PID.TID 0000.0001) %MON dynstat_vvel_max             =   2.3679030372689E-02
(PID.TID 0000.0001) %MON dynstat_vvel_min             =  -2.6073290559264E-02
(PID.TID 0000.0001) %MON dynstat_vvel_mean            =  -3.8487163835678E-07
(PID.TID 0000.0001) %MON dynstat_vvel_sd              =   1.1133302142931E-02
(PID.TID 0000.0001) %MON dynstat_vvel_del2            =   4.2269980463385E-07
(PID.TID 0000.0001) %MON dynstat_wvel_max             =   2.6582336274441E-08
(PID.TID 0000.0001) %MON dynstat_wvel_min             =  -4.7807076773606E-08
(PID.TID 0000.0001) %MON dynstat_wvel_mean            =  -1.3012875135226E-21
(PID.TID 0000.0001) %MON dynstat_wvel_sd              =   1.6364950614983E-08
(PID.TID 0000.0001) %MON dynstat_wvel_del2            =   1.0307468794355E-13
(PID.TID 0000.0001) %MON dynstat_theta_max            =   2.0000000000000E+01
(PID.TID 0000.0001) %MON dynstat_theta_min            =   2.0000000000000E+01
(PID.TID 0000.0001) %MON dynstat_theta_mean           =   1.9999999999999E+01
(PID.TID 0000.0001) %MON dynstat_theta_sd             =   1.1972645097557E-12
(PID.TID 0000.0001) %MON dynstat_theta_del2           =   0.0000000000000E+00
(PID.TID 0000.0001) %MON dynstat_salt_max             =   3.0000000000000E+01
(PID.TID 0000.0001) %MON dynstat_salt_min             =   3.0000000000000E+01
(PID.TID 0000.0001) %MON dynstat_salt_mean            =   2.9999999999998E+01
(PID.TID 0000.0001) %MON dynstat_salt_sd              =   2.1529444893531E-12
(PID.TID 0000.0001) %MON dynstat_salt_del2            =   0.0000000000000E+00
(PID.TID 0000.0001) %MON trAdv_CFL_u_max              =   7.0921036847902E-03
(PID.TID 0000.0001) %MON trAdv_CFL_v_max              =   6.2558890525172E-03
(PID.TID 0000.0001) %MON trAdv_CFL_w_max              =   6.7035305331023E-09
(PID.TID 0000.0001) %MON advcfl_uvel_max              =   7.0954177881857E-03
(PID.TID 0000.0001) %MON advcfl_vvel_max              =   6.2575897342233E-03
(PID.TID 0000.0001) %MON advcfl_wvel_max              =   2.2947396851331E-08
(PID.TID 0000.0001) %MON advcfl_W_hf_max              =   0.0000000000000E+00
(PID.TID 0000.0001) %MON pe_b_mean                    =   8.2892277358547E-07
(PID.TID 0000.0001) %MON ke_max                       =   4.3706501043729E-04
(PID.TID 0000.0001) %MON ke_mean                      =   1.2512221977659E-04
(PID.TID 0000.0001) %MON ke_vol                       =   7.2529629296391E+15
(PID.TID 0000.0001) %MON vort_r_min                   =  -1.0572275811578E-06
(PID.TID 0000.0001) %MON vort_r_max                   =   1.0446303365465E-06
(PID.TID 0000.0001) %MON vort_a_mean                  =   1.0615000000000E-04
(PID.TID 0000.0001) %MON vort_a_sd                    =   3.5697195217912E-06
(PID.TID 0000.0001) %MON vort_p_mean                  =   1.1210870169429E-04
(PID.TID 0000.0001) %MON vort_p_sd                    =   2.1054895331692E-05
(PID.TID 0000.0001) %MON surfExpan_theta_mean         =  -2.5696473466774E-20
(PID.TID 0000.0001) %MON surfExpan_salt_mean          =  -3.8148170149492E-20
(PID.TID 0000.0001) // =======================================================
(PID.TID 0000.0001) // End MONITOR dynamic field statistics
(PID.TID 0000.0001) // =======================================================
 cg2d: Sum(rhs),rhsMax =   3.46383093296227E-05  3.30743937133810E-03
 cg2d: Sum(rhs),rhsMax =   3.46462035407218E-05  3.30880845029283E-03
 cg2d: Sum(rhs),rhsMax =   3.46531320872621E-05  3.31017833257515E-03
 cg2d: Sum(rhs),rhsMax =   3.46624426996751E-05  3.31154901642461E-03
 cg2d: Sum(rhs),rhsMax =   3.46736105025034E-05  3.31292049940912E-03
 cg2d: Sum(rhs),rhsMax =   3.46843234721693E-05  3.31429278245111E-03
 cg2d: Sum(rhs),rhsMax =   3.46956717258984E-05  3.31566586093342E-03
 cg2d: Sum(rhs),rhsMax =   3.47072648322795E-05  3.31703973643800E-03
 cg2d: Sum(rhs),rhsMax =   3.47189578596037E-05  3.31841440563089E-03
 cg2d: Sum(rhs),rhsMax =   3.47312373942810E-05  3.31978986958506E-03
 cg2d: Sum(rhs),rhsMax =   3.47454110407042E-05  3.32116612463581E-03
 cg2d: Sum(rhs),rhsMax =   3.47597993171252E-05  3.32254317122805E-03
 cg2d: Sum(rhs),rhsMax =   3.47725603112425E-05  3.32392100631245E-03
 cg2d: Sum(rhs),rhsMax =   3.47850350266403E-05  3.32530046615561E-03
 cg2d: Sum(rhs),rhsMax =   3.47974157072946E-05  3.32668808524353E-03
 cg2d: Sum(rhs),rhsMax =   3.48096441682311E-05  3.32807649185898E-03
 cg2d: Sum(rhs),rhsMax =   3.48211888228419E-05  3.32946568275494E-03
 cg2d: Sum(rhs),rhsMax =   3.48314384482091E-05  3.33085565699371E-03
 cg2d: Sum(rhs),rhsMax =   3.48415483985547E-05  3.33224641352586E-03
 cg2d: Sum(rhs),rhsMax =   3.48491685948915E-05  3.33363794947684E-03
 cg2d: Sum(rhs),rhsMax =   3.48539807995749E-05  3.33503026576038E-03
 cg2d: Sum(rhs),rhsMax =   3.48594803520653E-05  3.33642335994163E-03
 cg2d: Sum(rhs),rhsMax =   3.48618052794496E-05  3.33781723009110E-03
 cg2d: Sum(rhs),rhsMax =   3.48645231214306E-05  3.33921187626006E-03
 cg2d: Sum(rhs),rhsMax =   3.48675536994119E-05  3.34060729599308E-03
 cg2d: Sum(rhs),rhsMax =   3.48708961937080E-05  3.34200348847902E-03
 cg2d: Sum(rhs),rhsMax =   3.48707862490192E-05  3.34340045317097E-03
 cg2d: Sum(rhs),rhsMax =   3.48708716589943E-05  3.34479818652705E-03
 cg2d: Sum(rhs),rhsMax =   3.48711011693330E-05  3.34619668803897E-03
 cg2d: Sum(rhs),rhsMax =   3.48714562888848E-05  3.34759595667586E-03
 cg2d: Sum(rhs),rhsMax =   3.48719608991742E-05  3.34899599065111E-03
 cg2d: Sum(rhs),rhsMax =   3.48726144637698E-05  3.35039678900368E-03
 cg2d: Sum(rhs),rhsMax =   3.48733604766558E-05  3.35179834982724E-03
 cg2d: Sum(rhs),rhsMax =   3.48742203990973E-05  3.35320067231220E-03
 cg2d: Sum(rhs),rhsMax =   3.48752136888810E-05  3.35460375435145E-03
 cg2d: Sum(rhs),rhsMax =   3.48762865690763E-05  3.35600759531586E-03
 cg2d: Sum(rhs),rhsMax =   3.48774661995772E-05  3.35741219291715E-03
 cg2d: Sum(rhs),rhsMax =   3.48787436737974E-05  3.35881754667070E-03
 cg2d: Sum(rhs),rhsMax =   3.48801223764373E-05  3.36022365414960E-03
 cg2d: Sum(rhs),rhsMax =   3.48796290802365E-05  3.36163051407316E-03
 cg2d: Sum(rhs),rhsMax =   3.48792244294080E-05  3.36303812555486E-03
 cg2d: Sum(rhs),rhsMax =   3.48788830960541E-05  3.36444648791511E-03
 cg2d: Sum(rhs),rhsMax =   3.48786426128608E-05  3.36585559778162E-03
 cg2d: Sum(rhs),rhsMax =   3.48784743042464E-05  3.36726545574903E-03
 cg2d: Sum(rhs),rhsMax =   3.48783792992495E-05  3.36867605839678E-03
 cg2d: Sum(rhs),rhsMax =   3.48783501538438E-05  3.37008740619696E-03
 cg2d: Sum(rhs),rhsMax =   3.48784317743371E-05  3.37149949622649E-03
 cg2d: Sum(rhs),rhsMax =   3.48785570656049E-05  3.37291232747390E-03
 cg2d: Sum(rhs),rhsMax =   3.48787866095148E-05  3.37432589791436E-03
 cg2d: Sum(rhs),rhsMax =   3.48790910231975E-05  3.37574020766272E-03
 cg2d: Sum(rhs),rhsMax =   3.48794700285836E-05  3.37715525349668E-03
 cg2d: Sum(rhs),rhsMax =   3.48799412807953E-05  3.37857103544570E-03
 cg2d: Sum(rhs),rhsMax =   3.48804896088796E-05  3.37998755074016E-03
 cg2d: Sum(rhs),rhsMax =   3.48811033543412E-05  3.38140479843303E-03
 cg2d: Sum(rhs),rhsMax =   3.48818029007351E-05  3.38282277833500E-03
 cg2d: Sum(rhs),rhsMax =   3.48826108585642E-05  3.38424148684280E-03
 cg2d: Sum(rhs),rhsMax =   3.48835009096613E-05  3.38566092330458E-03
 cg2d: Sum(rhs),rhsMax =   3.48844536069816E-05  3.38708108629804E-03
 cg2d: Sum(rhs),rhsMax =   3.48855119672404E-05  3.38850197423776E-03
 cg2d: Sum(rhs),rhsMax =   3.48866309243211E-05  3.38992358604737E-03
 cg2d: Sum(rhs),rhsMax =   3.48878493443699E-05  3.39134591958114E-03
 cg2d: Sum(rhs),rhsMax =   3.48891694862278E-05  3.39276897395739E-03
 cg2d: Sum(rhs),rhsMax =   3.48905607783188E-05  3.39419274708651E-03
 cg2d: Sum(rhs),rhsMax =   3.48920425245151E-05  3.39561723754722E-03
 cg2d: Sum(rhs),rhsMax =   3.48935974577259E-05  3.39704244523564E-03
 cg2d: Sum(rhs),rhsMax =   3.48952562669218E-05  3.39846836688704E-03
 cg2d: Sum(rhs),rhsMax =   3.48970153593543E-05  3.39989500108386E-03
 cg2d: Sum(rhs),rhsMax =   3.48988512938932E-05  3.40132234665410E-03
 cg2d: Sum(rhs),rhsMax =   3.49007620110593E-05  3.40275040266010E-03
 cg2d: Sum(rhs),rhsMax =   3.49027383571617E-05  3.40418431641436E-03
 cg2d: Sum(rhs),rhsMax =   3.49047986370208E-05  3.40562179513444E-03
 cg2d: Sum(rhs),rhsMax =   3.49069262246052E-05  3.40705997825654E-03
(PID.TID 0000.0001)      cg2d_init_res =   2.91106987865514E-02
(PID.TID 0000.0001)      cg2d_iters(min,last) =      -1     406
(PID.TID 0000.0001)      cg2d_last_res =   9.90520063283370E-08
(PID.TID 0000.0001) // =======================================================
(PID.TID 0000.0001) // Begin MONITOR dynamic field statistics
(PID.TID 0000.0001) // =======================================================
(PID.TID 0000.0001) %MON time_tsnumber                =                  1944
(PID.TID 0000.0001) %MON time_secondsf                =   2.3328000000000E+06
(PID.TID 0000.0001) %MON dynstat_eta_max              =   3.7589796858363E-02
(PID.TID 0000.0001) %MON dynstat_eta_min              =  -7.1620046743348E-02
(PID.TID 0000.0001) %MON dynstat_eta_mean             =  -5.6623718255976E-10
(PID.TID 0000.0001) %MON dynstat_eta_sd               =   2.9161346065275E-02
(PID.TID 0000.0001) %MON dynstat_eta_del2             =   1.7471857873593E-07
(PID.TID 0000.0001) %MON dynstat_uvel_max             =   2.8413704509113E-02
(PID.TID 0000.0001) %MON dynstat_uvel_min             =  -3.0571015896390E-02
(PID.TID 0000.0001) %MON dynstat_uvel_mean            =   4.3464056931532E-07
(PID.TID 0000.0001) %MON dynstat_uvel_sd              =   1.1678714916312E-02
(PID.TID 0000.0001) %MON dynstat_uvel_del2            =   3.7523533769608E-07
(PID.TID 0000.0001) %MON dynstat_vvel_max             =   2.3894855482750E-02
(PID.TID 0000.0001) %MON dynstat_vvel_min             =  -2.6294364257421E-02
(PID.TID 0000.0001) %MON dynstat_vvel_mean            =  -4.5369659637028E-07
(PID.TID 0000.0001) %MON dynstat_vvel_sd              =   1.1203473075961E-02
(PID.TID 0000.0001) %MON dynstat_vvel_del2            =   4.1436540336487E-07
(PID.TID 0000.0001) %MON dynstat_wvel_max             =   2.9043739971821E-08
(PID.TID 0000.0001) %MON dynstat_wvel_min             =  -4.6480074077845E-08
(PID.TID 0000.0001) %MON dynstat_wvel_mean            =  -9.9317234730985E-22
(PID.TID 0000.0001) %MON dynstat_wvel_sd              =   1.6158069736013E-08
(PID.TID 0000.0001) %MON dynstat_wvel_del2            =   1.0416247009973E-13
(PID.TID 0000.0001) %MON dynstat_theta_max            =   2.0000000000000E+01
(PID.TID 0000.0001) %MON dynstat_theta_min            =   2.0000000000000E+01
(PID.TID 0000.0001) %MON dynstat_theta_mean           =   1.9999999999999E+01
(PID.TID 0000.0001) %MON dynstat_theta_sd             =   1.1972645097557E-12
(PID.TID 0000.0001) %MON dynstat_theta_del2           =   0.0000000000000E+00
(PID.TID 0000.0001) %MON dynstat_salt_max             =   3.0000000000000E+01
(PID.TID 0000.0001) %MON dynstat_salt_min             =   3.0000000000000E+01
(PID.TID 0000.0001) %MON dynstat_salt_mean            =   2.9999999999998E+01
(PID.TID 0000.0001) %MON dynstat_salt_sd              =   2.1529444893531E-12
(PID.TID 0000.0001) %MON dynstat_salt_del2            =   0.0000000000000E+00
(PID.TID 0000.0001) %MON trAdv_CFL_u_max              =   7.3336347823902E-03
(PID.TID 0000.0001) %MON trAdv_CFL_v_max              =   6.3089337706786E-03
(PID.TID 0000.0001) %MON trAdv_CFL_w_max              =   7.3379295159687E-09
(PID.TID 0000.0001) %MON advcfl_uvel_max              =   7.3370438151336E-03
(PID.TID 0000.0001) %MON advcfl_vvel_max              =   6.3106474217810E-03
(PID.TID 0000.0001) %MON advcfl_wvel_max              =   2.2310435557365E-08
(PID.TID 0000.0001) %MON advcfl_W_hf_max              =   0.0000000000000E+00
(PID.TID 0000.0001) %MON pe_b_mean                    =   8.7005941404920E-07
(PID.TID 0000.0001) %MON ke_max                       =   4.6733618518952E-04
(PID.TID 0000.0001) %MON ke_mean                      =   1.3036561700398E-04
(PID.TID 0000.0001) %MON ke_vol                       =   7.2529629296391E+15
(PID.TID 0000.0001) %MON vort_r_min                   =  -1.0891827634761E-06
(PID.TID 0000.0001) %MON vort_r_max                   =   9.9813803985643E-07
(PID.TID 0000.0001) %MON vort_a_mean                  =   1.0615000000000E-04
(PID.TID 0000.0001) %MON vort_a_sd                    =   3.5698325924479E-06
(PID.TID 0000.0001) %MON vort_p_mean                  =   1.1210870169429E-04
(PID.TID 0000.0001) %MON vort_p_sd                    =   2.1054861849993E-05
(PID.TID 0000.0001) %MON surfExpan_theta_mean         =  -2.0397875117893E-20
(PID.TID 0000.0001) %MON surfExpan_salt_mean          =  -2.8725965576977E-20
(PID.TID 0000.0001) // =======================================================
(PID.TID 0000.0001) // End MONITOR dynamic field statistics
(PID.TID 0000.0001) // =======================================================
 cg2d: Sum(rhs),rhsMax =   3.49091348705310E-05  3.40849886528560E-03
 cg2d: Sum(rhs),rhsMax =   3.49114702983397E-05  3.40993845355192E-03
 cg2d: Sum(rhs),rhsMax =   3.49138951882778E-05  3.41137874205807E-03
 cg2d: Sum(rhs),rhsMax =   3.49164068743210E-05  3.41281972864192E-03
 cg2d: Sum(rhs),rhsMax =   3.49190048411470E-05  3.41426141290818E-03
 cg2d: Sum(rhs),rhsMax =   3.49217227563706E-05  3.41570379217436E-03
 cg2d: Sum(rhs),rhsMax =   3.49245446598680E-05  3.41714686527660E-03
 cg2d: Sum(rhs),rhsMax =   3.49274375722490E-05  3.41859063021246E-03
 cg2d: Sum(rhs),rhsMax =   3.49304591266229E-05  3.42003508639708E-03
 cg2d: Sum(rhs),rhsMax =   3.49315340064105E-05  3.42148023185334E-03
 cg2d: Sum(rhs),rhsMax =   3.49326915334630E-05  3.42292606375343E-03
 cg2d: Sum(rhs),rhsMax =   3.49339405054522E-05  3.42437258259394E-03
 cg2d: Sum(rhs),rhsMax =   3.49352898625678E-05  3.42581978475215E-03
 cg2d: Sum(rhs),rhsMax =   3.49367350931384E-05  3.42726767049292E-03
 cg2d: Sum(rhs),rhsMax =   3.49382888848934E-05  3.42871623648748E-03
 cg2d: Sum(rhs),rhsMax =   3.49379086036477E-05  3.43016548278595E-03
 cg2d: Sum(rhs),rhsMax =   3.49376486264239E-05  3.43161540628135E-03
 cg2d: Sum(rhs),rhsMax =   3.49374410034183E-05  3.43306600669469E-03
 cg2d: Sum(rhs),rhsMax =   3.49373323319984E-05  3.43451728136997E-03
 cg2d: Sum(rhs),rhsMax =   3.49373295678588E-05  3.43596922940251E-03
 cg2d: Sum(rhs),rhsMax =   3.49373884019032E-05  3.43742184851726E-03
 cg2d: Sum(rhs),rhsMax =   3.49375580599607E-05  3.43887513787378E-03
 cg2d: Sum(rhs),rhsMax =   3.49378005758596E-05  3.44032909511866E-03
 cg2d: Sum(rhs),rhsMax =   3.49381503235869E-05  3.44178371922684E-03
 cg2d: Sum(rhs),rhsMax =   3.49385823928744E-05  3.44323900798450E-03
 cg2d: Sum(rhs),rhsMax =   3.49390855319352E-05  3.44469496055463E-03
 cg2d: Sum(rhs),rhsMax =   3.49397144792348E-05  3.44615157463283E-03
 cg2d: Sum(rhs),rhsMax =   3.49404152573882E-05  3.44760884876990E-03
 cg2d: Sum(rhs),rhsMax =   3.49412005057137E-05  3.44906678124505E-03
 cg2d: Sum(rhs),rhsMax =   3.49420964916415E-05  3.45052537080982E-03
 cg2d: Sum(rhs),rhsMax =   3.49430772357880E-05  3.45198461544315E-03
 cg2d: Sum(rhs),rhsMax =   3.49441623932190E-05  3.45344451368662E-03
 cg2d: Sum(rhs),rhsMax =   3.49453256367196E-05  3.45490506377602E-03
 cg2d: Sum(rhs),rhsMax =   3.49465966418411E-05  3.45636626392543E-03
 cg2d: Sum(rhs),rhsMax =   3.49479543476760E-05  3.45782811324177E-03
 cg2d: Sum(rhs),rhsMax =   3.49494108877338E-05  3.45929060955434E-03
 cg2d: Sum(rhs),rhsMax =   3.49509692441101E-05  3.46075375065989E-03
 cg2d: Sum(rhs),rhsMax =   3.49526182783994E-05  3.46221753525550E-03
 cg2d: Sum(rhs),rhsMax =   3.49543635376611E-05  3.46368196231307E-03
 cg2d: Sum(rhs),rhsMax =   3.49561916794180E-05  3.46514702942700E-03
 cg2d: Sum(rhs),rhsMax =   3.49581305288333E-05  3.46661273527958E-03
 cg2d: Sum(rhs),rhsMax =   3.49601631063831E-05  3.46807907803019E-03
 cg2d: Sum(rhs),rhsMax =   3.49622844486638E-05  3.46954605635598E-03
 cg2d: Sum(rhs),rhsMax =   3.49645297087874E-05  3.47101366813226E-03
 cg2d: Sum(rhs),rhsMax =   3.49668457082421E-05  3.47248191218067E-03
 cg2d: Sum(rhs),rhsMax =   3.49692603774385E-05  3.47395078623298E-03
 cg2d: Sum(rhs),rhsMax =   3.49717865017031E-05  3.47542028958993E-03
 cg2d: Sum(rhs),rhsMax =   3.49743956001803E-05  3.47689041923194E-03
 cg2d: Sum(rhs),rhsMax =   3.49770977744962E-05  3.47836117451243E-03
 cg2d: Sum(rhs),rhsMax =   3.49799064983747E-05  3.47983255294618E-03
 cg2d: Sum(rhs),rhsMax =   3.49828338655732E-05  3.48130455370107E-03
 cg2d: Sum(rhs),rhsMax =   3.49858534294091E-05  3.48277717421118E-03
 cg2d: Sum(rhs),rhsMax =   3.49889590119772E-05  3.48425041387253E-03
 cg2d: Sum(rhs),rhsMax =   3.49921733029095E-05  3.48572426983685E-03
 cg2d: Sum(rhs),rhsMax =   3.49954927518241E-05  3.48719874152987E-03
 cg2d: Sum(rhs),rhsMax =   3.49988658267407E-05  3.48867760931453E-03
 cg2d: Sum(rhs),rhsMax =   3.50023147644256E-05  3.49016105036697E-03
 cg2d: Sum(rhs),rhsMax =   3.50058337895576E-05  3.49164510028252E-03
 cg2d: Sum(rhs),rhsMax =   3.50094883031209E-05  3.49312975616799E-03
 cg2d: Sum(rhs),rhsMax =   3.50132092009356E-05  3.49461501766351E-03
 cg2d: Sum(rhs),rhsMax =   3.50170303668766E-05  3.49610088149810E-03
 cg2d: Sum(rhs),rhsMax =   3.50209694281352E-05  3.49758734731313E-03
 cg2d: Sum(rhs),rhsMax =   3.50250057952846E-05  3.49907441207553E-03
 cg2d: Sum(rhs),rhsMax =   3.50291217182889E-05  3.50056207540702E-03
 cg2d: Sum(rhs),rhsMax =   3.50333774884878E-05  3.50205033447606E-03
 cg2d: Sum(rhs),rhsMax =   3.50377186464799E-05  3.50353918814635E-03
 cg2d: Sum(rhs),rhsMax =   3.50421536374247E-05  3.50502863412808E-03
 cg2d: Sum(rhs),rhsMax =   3.50467137108530E-05  3.50651867144395E-03
 cg2d: Sum(rhs),rhsMax =   3.50513636509821E-05  3.50800929765807E-03
 cg2d: Sum(rhs),rhsMax =   3.50561101616987E-05  3.50950051147066E-03
 cg2d: Sum(rhs),rhsMax =   3.50609691782506E-05  3.51099231089220E-03
 cg2d: Sum(rhs),rhsMax =   3.50659164811183E-05  3.51248469420832E-03
(PID.TID 0000.0001)      cg2d_init_res =   2.81533416514233E-02
(PID.TID 0000.0001)      cg2d_iters(min,last) =      -1     408
(PID.TID 0000.0001)      cg2d_last_res =   9.60046442243631E-08
(PID.TID 0000.0001) // =======================================================
(PID.TID 0000.0001) // Begin MONITOR dynamic field statistics
(PID.TID 0000.0001) // =======================================================
(PID.TID 0000.0001) %MON time_tsnumber                =                  2016
(PID.TID 0000.0001) %MON time_secondsf                =   2.4192000000000E+06
(PID.TID 0000.0001) %MON dynstat_eta_max              =   3.6593283141859E-02
(PID.TID 0000.0001) %MON dynstat_eta_min              =  -7.3279448745761E-02
(PID.TID 0000.0001) %MON dynstat_eta_mean             =  -5.8646611983583E-10
(PID.TID 0000.0001) %MON dynstat_eta_sd               =   2.9895248748729E-02
(PID.TID 0000.0001) %MON dynstat_eta_del2             =   1.7692626866891E-07
(PID.TID 0000.0001) %MON dynstat_uvel_max             =   2.9352125879820E-02
(PID.TID 0000.0001) %MON dynstat_uvel_min             =  -3.1606938781265E-02
(PID.TID 0000.0001) %MON dynstat_uvel_mean            =   3.8199690421647E-07
(PID.TID 0000.0001) %MON dynstat_uvel_sd              =   1.2080558628103E-02
(PID.TID 0000.0001) %MON dynstat_uvel_del2            =   3.9095408628277E-07
(PID.TID 0000.0001) %MON dynstat_vvel_max             =   2.4236249669527E-02
(PID.TID 0000.0001) %MON dynstat_vvel_min             =  -2.6529384462752E-02
(PID.TID 0000.0001) %MON dynstat_vvel_mean            =  -5.1338808431356E-07
(PID.TID 0000.0001) %MON dynstat_vvel_sd              =   1.1276397625517E-02
(PID.TID 0000.0001) %MON dynstat_vvel_del2            =   4.0984666194020E-07
(PID.TID 0000.0001) %MON dynstat_wvel_max             =   3.1604658750002E-08
(PID.TID 0000.0001) %MON dynstat_wvel_min             =  -4.4857755331323E-08
(PID.TID 0000.0001) %MON dynstat_wvel_mean            =   1.9333835058036E-22
(PID.TID 0000.0001) %MON dynstat_wvel_sd              =   1.5972458394741E-08
(PID.TID 0000.0001) %MON dynstat_wvel_del2            =   1.0467095037450E-13
(PID.TID 0000.0001) %MON dynstat_theta_max            =   2.0000000000000E+01
(PID.TID 0000.0001) %MON dynstat_theta_min            =   2.0000000000000E+01
(PID.TID 0000.0001) %MON dynstat_theta_mean           =   1.9999999999999E+01
(PID.TID 0000.0001) %MON dynstat_theta_sd             =   1.1972645097557E-12
(PID.TID 0000.0001) %MON dynstat_theta_del2           =   0.0000000000000E+00
(PID.TID 0000.0001) %MON dynstat_salt_max             =   3.0000000000000E+01
(PID.TID 0000.0001) %MON dynstat_salt_min             =   3.0000000000000E+01
(PID.TID 0000.0001) %MON dynstat_salt_mean            =   2.9999999999998E+01
(PID.TID 0000.0001) %MON dynstat_salt_sd              =   2.1529444893531E-12
(PID.TID 0000.0001) %MON dynstat_salt_del2            =   0.0000000000000E+00
(PID.TID 0000.0001) %MON trAdv_CFL_u_max              =   7.5821589460828E-03
(PID.TID 0000.0001) %MON trAdv_CFL_v_max              =   6.3654176541667E-03
(PID.TID 0000.0001) %MON trAdv_CFL_w_max              =   7.9977127647222E-09
(PID.TID 0000.0001) %MON advcfl_uvel_max              =   7.5856653075036E-03
(PID.TID 0000.0001) %MON advcfl_vvel_max              =   6.3670522710604E-03
(PID.TID 0000.0001) %MON advcfl_wvel_max              =   2.1531722559035E-08
(PID.TID 0000.0001) %MON advcfl_W_hf_max              =   0.0000000000000E+00
(PID.TID 0000.0001) %MON pe_b_mean                    =   9.1440400514096E-07
(PID.TID 0000.0001) %MON ke_max                       =   4.9954306936354E-04
(PID.TID 0000.0001) %MON ke_mean                      =   1.3593386343645E-04
(PID.TID 0000.0001) %MON ke_vol                       =   7.2529629296391E+15
(PID.TID 0000.0001) %MON vort_r_min                   =  -1.1227336615756E-06
(PID.TID 0000.0001) %MON vort_r_max                   =   9.7412960640617E-07
(PID.TID 0000.0001) %MON vort_a_mean                  =   1.0615000000000E-04
(PID.TID 0000.0001) %MON vort_a_sd                    =   3.5699741170471E-06
(PID.TID 0000.0001) %MON vort_p_mean                  =   1.1210870169429E-04
(PID.TID 0000.0001) %MON vort_p_sd                    =   2.1054805642017E-05
(PID.TID 0000.0001) %MON surfExpan_theta_mean         =   4.0978036102330E-21
(PID.TID 0000.0001) %MON surfExpan_salt_mean          =   5.3735387332702E-21
(PID.TID 0000.0001) // =======================================================
(PID.TID 0000.0001) // End MONITOR dynamic field statistics
(PID.TID 0000.0001) // =======================================================
 cg2d: Sum(rhs),rhsMax =   3.50709729437185E-05  3.51397765983755E-03
 cg2d: Sum(rhs),rhsMax =   3.50761209964153E-05  3.51547120565013E-03
 cg2d: Sum(rhs),rhsMax =   3.50813652686879E-05  3.51696533044401E-03
 cg2d: Sum(rhs),rhsMax =   3.50867451932172E-05  3.51846003180345E-03
 cg2d: Sum(rhs),rhsMax =   3.50922232888887E-05  3.51995530856904E-03
 cg2d: Sum(rhs),rhsMax =   3.50977763639753E-05  3.52145115879279E-03
 cg2d: Sum(rhs),rhsMax =   3.51034388791438E-05  3.52294757992012E-03
 cg2d: Sum(rhs),rhsMax =   3.51092228600179E-05  3.52444457181536E-03
 cg2d: Sum(rhs),rhsMax =   3.51150902922915E-05  3.52594213082919E-03
 cg2d: Sum(rhs),rhsMax =   3.51210708133109E-05  3.52744025718147E-03
 cg2d: Sum(rhs),rhsMax =   3.51271513294414E-05  3.52893894718417E-03
 cg2d: Sum(rhs),rhsMax =   3.51333402391447E-05  3.53043820060954E-03
 cg2d: Sum(rhs),rhsMax =   3.51396328045796E-05  3.53193801428725E-03
 cg2d: Sum(rhs),rhsMax =   3.51460213929523E-05  3.53343838792575E-03
 cg2d: Sum(rhs),rhsMax =   3.51525063854718E-05  3.53493931825841E-03
 cg2d: Sum(rhs),rhsMax =   3.51591042951184E-05  3.53644080494784E-03
 cg2d: Sum(rhs),rhsMax =   3.51658057894328E-05  3.53794284478128E-03
 cg2d: Sum(rhs),rhsMax =   3.51726112622006E-05  3.53944543741891E-03
 cg2d: Sum(rhs),rhsMax =   3.51795151531196E-05  3.54094857958680E-03
 cg2d: Sum(rhs),rhsMax =   3.51865295523885E-05  3.54245227099098E-03
 cg2d: Sum(rhs),rhsMax =   3.51936128866973E-05  3.54395650833396E-03
 cg2d: Sum(rhs),rhsMax =   3.52008282846449E-05  3.54546129126849E-03
 cg2d: Sum(rhs),rhsMax =   3.52081318665230E-05  3.54696661680310E-03
 cg2d: Sum(rhs),rhsMax =   3.52155291607655E-05  3.54847248438253E-03
 cg2d: Sum(rhs),rhsMax =   3.52230560185371E-05  3.54997889073995E-03
 cg2d: Sum(rhs),rhsMax =   3.52306873429688E-05  3.55148583553226E-03
 cg2d: Sum(rhs),rhsMax =   3.52384008143140E-05  3.55299331550147E-03
 cg2d: Sum(rhs),rhsMax =   3.52462367754248E-05  3.55450133029978E-03
 cg2d: Sum(rhs),rhsMax =   3.52541561383334E-05  3.55600987679042E-03
 cg2d: Sum(rhs),rhsMax =   3.52621842680274E-05  3.55751895441827E-03
 cg2d: Sum(rhs),rhsMax =   3.52703030260517E-05  3.55902856025612E-03
 cg2d: Sum(rhs),rhsMax =   3.52785354327456E-05  3.56053869341877E-03
 cg2d: Sum(rhs),rhsMax =   3.52868489587746E-05  3.56204935131758E-03
 cg2d: Sum(rhs),rhsMax =   3.52952796523641E-05  3.56356053285998E-03
 cg2d: Sum(rhs),rhsMax =   3.53038063919198E-05  3.56507223569031E-03
 cg2d: Sum(rhs),rhsMax =   3.53124411667689E-05  3.56658445838838E-03
 cg2d: Sum(rhs),rhsMax =   3.53211742271028E-05  3.56809719870408E-03
 cg2d: Sum(rhs),rhsMax =   3.53300143769502E-05  3.56961045524690E-03
 cg2d: Sum(rhs),rhsMax =   3.53389384536466E-05  3.57112422597098E-03
 cg2d: Sum(rhs),rhsMax =   3.53479705552211E-05  3.57263850913722E-03
 cg2d: Sum(rhs),rhsMax =   3.53570963256035E-05  3.57415330267155E-03
 cg2d: Sum(rhs),rhsMax =   3.53663558422734E-05  3.57566860538593E-03
 cg2d: Sum(rhs),rhsMax =   3.53756802482074E-05  3.57718441476707E-03
 cg2d: Sum(rhs),rhsMax =   3.53851144604391E-05  3.57870072950799E-03
 cg2d: Sum(rhs),rhsMax =   3.53946407776889E-05  3.58021754726617E-03
 cg2d: Sum(rhs),rhsMax =   3.54042093071499E-05  3.58174155172279E-03
 cg2d: Sum(rhs),rhsMax =   3.54138681680780E-05  3.58326678233328E-03
 cg2d: Sum(rhs),rhsMax =   3.54236180298987E-05  3.58479250738824E-03
 cg2d: Sum(rhs),rhsMax =   3.54334622378900E-05  3.58631872594453E-03
 cg2d: Sum(rhs),rhsMax =   3.54434090185148E-05  3.58784543515583E-03
 cg2d: Sum(rhs),rhsMax =   3.54534629441738E-05  3.58937263423998E-03
 cg2d: Sum(rhs),rhsMax =   3.54636126186029E-05  3.59090032005382E-03
 cg2d: Sum(rhs),rhsMax =   3.54738416955373E-05  3.59242849176046E-03
 cg2d: Sum(rhs),rhsMax =   3.54841522167363E-05  3.59395714758722E-03
 cg2d: Sum(rhs),rhsMax =   3.54945989082828E-05  3.59548628532629E-03
 cg2d: Sum(rhs),rhsMax =   3.55051247520740E-05  3.59701590289945E-03
 cg2d: Sum(rhs),rhsMax =   3.55128149572654E-05  3.59854599914772E-03
 cg2d: Sum(rhs),rhsMax =   3.55205765287239E-05  3.60007657220395E-03
 cg2d: Sum(rhs),rhsMax =   3.55284282055838E-05  3.60160761790391E-03
 cg2d: Sum(rhs),rhsMax =   3.55363909371118E-05  3.60313913792794E-03
 cg2d: Sum(rhs),rhsMax =   3.55444069311973E-05  3.60467112697653E-03
 cg2d: Sum(rhs),rhsMax =   3.55525441881948E-05  3.60620358643865E-03
 cg2d: Sum(rhs),rhsMax =   3.55607202206249E-05  3.60773651136715E-03
 cg2d: Sum(rhs),rhsMax =   3.55690146501093E-05  3.60926990285884E-03
 cg2d: Sum(rhs),rhsMax =   3.55773800919893E-05  3.61080375620043E-03
 cg2d: Sum(rhs),rhsMax =   3.55858389106045E-05  3.61233807227390E-03
 cg2d: Sum(rhs),rhsMax =   3.55943796990204E-05  3.61387284654839E-03
 cg2d: Sum(rhs),rhsMax =   3.56030206892319E-05  3.61540807973936E-03
 cg2d: Sum(rhs),rhsMax =   3.56117247709833E-05  3.61694376743213E-03
 cg2d: Sum(rhs),rhsMax =   3.56204987219640E-05  3.61847991026137E-03
 cg2d: Sum(rhs),rhsMax =   3.56267256214843E-05  3.62001650232017E-03
 cg2d: Sum(rhs),rhsMax =   3.56330070748010E-05  3.62155354742096E-03
(PID.TID 0000.0001)      cg2d_init_res =   2.71238646765059E-02
(PID.TID 0000.0001)      cg2d_iters(min,last) =      -1     410
(PID.TID 0000.0001)      cg2d_last_res =   9.30322264470860E-08
(PID.TID 0000.0001) // =======================================================
(PID.TID 0000.0001) // Begin MONITOR dynamic field statistics
(PID.TID 0000.0001) // =======================================================
(PID.TID 0000.0001) %MON time_tsnumber                =                  2088
(PID.TID 0000.0001) %MON time_secondsf                =   2.5056000000000E+06
(PID.TID 0000.0001) %MON dynstat_eta_max              =   3.6398830443551E-02
(PID.TID 0000.0001) %MON dynstat_eta_min              =  -7.4979770796624E-02
(PID.TID 0000.0001) %MON dynstat_eta_mean             =  -6.1447692965358E-10
(PID.TID 0000.0001) %MON dynstat_eta_sd               =   3.0665686149106E-02
(PID.TID 0000.0001) %MON dynstat_eta_del2             =   1.7954610766895E-07
(PID.TID 0000.0001) %MON dynstat_uvel_max             =   3.0250761610669E-02
(PID.TID 0000.0001) %MON dynstat_uvel_min             =  -3.2672109403911E-02
(PID.TID 0000.0001) %MON dynstat_uvel_mean            =   3.2006980589485E-07
(PID.TID 0000.0001) %MON dynstat_uvel_sd              =   1.2491582456918E-02
(PID.TID 0000.0001) %MON dynstat_uvel_del2            =   4.0711786666809E-07
(PID.TID 0000.0001) %MON dynstat_vvel_max             =   2.4584176822238E-02
(PID.TID 0000.0001) %MON dynstat_vvel_min             =  -2.6787420023583E-02
(PID.TID 0000.0001) %MON dynstat_vvel_mean            =  -5.6214663046316E-07
(PID.TID 0000.0001) %MON dynstat_vvel_sd              =   1.1357493419513E-02
(PID.TID 0000.0001) %MON dynstat_vvel_del2            =   4.0948452309541E-07
(PID.TID 0000.0001) %MON dynstat_wvel_max             =   3.4132157796703E-08
(PID.TID 0000.0001) %MON dynstat_wvel_min             =  -4.2973045925610E-08
(PID.TID 0000.0001) %MON dynstat_wvel_mean            =  -3.1081542135546E-21
(PID.TID 0000.0001) %MON dynstat_wvel_sd              =   1.5808656879149E-08
(PID.TID 0000.0001) %MON dynstat_wvel_del2            =   1.0456572896902E-13
(PID.TID 0000.0001) %MON dynstat_theta_max            =   2.0000000000000E+01
(PID.TID 0000.0001) %MON dynstat_theta_min            =   2.0000000000000E+01
(PID.TID 0000.0001) %MON dynstat_theta_mean           =   1.9999999999999E+01
(PID.TID 0000.0001) %MON dynstat_theta_sd             =   1.1972645097557E-12
(PID.TID 0000.0001) %MON dynstat_theta_del2           =   0.0000000000000E+00
(PID.TID 0000.0001) %MON dynstat_salt_max             =   3.0000000000000E+01
(PID.TID 0000.0001) %MON dynstat_salt_min             =   3.0000000000000E+01
(PID.TID 0000.0001) %MON dynstat_salt_mean            =   2.9999999999998E+01
(PID.TID 0000.0001) %MON dynstat_salt_sd              =   2.1529444893531E-12
(PID.TID 0000.0001) %MON dynstat_salt_del2            =   0.0000000000000E+00
(PID.TID 0000.0001) %MON trAdv_CFL_u_max              =   7.8377032538559E-03
(PID.TID 0000.0001) %MON trAdv_CFL_v_max              =   6.4273780962456E-03
(PID.TID 0000.0001) %MON trAdv_CFL_w_max              =   8.6478335177617E-09
(PID.TID 0000.0001) %MON advcfl_uvel_max              =   7.8413062569387E-03
(PID.TID 0000.0001) %MON advcfl_vvel_max              =   6.4289808056599E-03
(PID.TID 0000.0001) %MON advcfl_wvel_max              =   2.0627062044293E-08
(PID.TID 0000.0001) %MON advcfl_W_hf_max              =   0.0000000000000E+00
(PID.TID 0000.0001) %MON pe_b_mean                    =   9.6214194850426E-07
(PID.TID 0000.0001) %MON ke_max                       =   5.3378018428685E-04
(PID.TID 0000.0001) %MON ke_mean                      =   1.4187462533045E-04
(PID.TID 0000.0001) %MON ke_vol                       =   7.2529629296391E+15
(PID.TID 0000.0001) %MON vort_r_min                   =  -1.1576908620243E-06
(PID.TID 0000.0001) %MON vort_r_max                   =   9.7182287947017E-07
(PID.TID 0000.0001) %MON vort_a_mean                  =   1.0615000000000E-04
(PID.TID 0000.0001) %MON vort_a_sd                    =   3.5701464186797E-06
(PID.TID 0000.0001) %MON vort_p_mean                  =   1.1210870169429E-04
(PID.TID 0000.0001) %MON vort_p_sd                    =   2.1054734504212E-05
(PID.TID 0000.0001) %MON surfExpan_theta_mean         =  -6.2028737035456E-20
(PID.TID 0000.0001) %MON surfExpan_salt_mean          =  -9.1401901653878E-20
(PID.TID 0000.0001) // =======================================================
(PID.TID 0000.0001) // End MONITOR dynamic field statistics
(PID.TID 0000.0001) // =======================================================
 cg2d: Sum(rhs),rhsMax =   3.56393823239282E-05  3.62309103932734E-03
 cg2d: Sum(rhs),rhsMax =   3.56458139439885E-05  3.62462897876484E-03
 cg2d: Sum(rhs),rhsMax =   3.56523417709489E-05  3.62616736176988E-03
 cg2d: Sum(rhs),rhsMax =   3.56589201633006E-05  3.62770618861849E-03
 cg2d: Sum(rhs),rhsMax =   3.56655991346870E-05  3.62924545474257E-03
 cg2d: Sum(rhs),rhsMax =   3.56723291787637E-05  3.63078516095661E-03
 cg2d: Sum(rhs),rhsMax =   3.56791485900988E-05  3.63232530326546E-03
 cg2d: Sum(rhs),rhsMax =   3.56860228722129E-05  3.63386588164507E-03
 cg2d: Sum(rhs),rhsMax =   3.56929816802739E-05  3.63540689199748E-03
 cg2d: Sum(rhs),rhsMax =   3.57000104584749E-05  3.63694833458192E-03
 cg2d: Sum(rhs),rhsMax =   3.57071245838036E-05  3.63849020615860E-03
 cg2d: Sum(rhs),rhsMax =   3.57142946869442E-05  3.64003250610938E-03
 cg2d: Sum(rhs),rhsMax =   3.57215485562801E-05  3.64157523036950E-03
 cg2d: Sum(rhs),rhsMax =   3.57288808164186E-05  3.64311837944464E-03
 cg2d: Sum(rhs),rhsMax =   3.57362833468353E-05  3.64466194976425E-03
 cg2d: Sum(rhs),rhsMax =   3.57437503401021E-05  3.64620594088377E-03
 cg2d: Sum(rhs),rhsMax =   3.57512921487441E-05  3.64775034918084E-03
 cg2d: Sum(rhs),rhsMax =   3.57588761061714E-05  3.64929517456281E-03
 cg2d: Sum(rhs),rhsMax =   3.57665534578078E-05  3.65084041339763E-03
 cg2d: Sum(rhs),rhsMax =   3.57743038087921E-05  3.65238606554542E-03
 cg2d: Sum(rhs),rhsMax =   3.57821235497883E-05  3.65393212742459E-03
 cg2d: Sum(rhs),rhsMax =   3.57899799887989E-05  3.65547859866260E-03
 cg2d: Sum(rhs),rhsMax =   3.57979303083388E-05  3.65702547647588E-03
 cg2d: Sum(rhs),rhsMax =   3.58059606915895E-05  3.65857275809779E-03
 cg2d: Sum(rhs),rhsMax =   3.58140286203902E-05  3.66012044338585E-03
 cg2d: Sum(rhs),rhsMax =   3.58222096698176E-05  3.66166853000781E-03
 cg2d: Sum(rhs),rhsMax =   3.58304146664433E-05  3.66321701599433E-03
 cg2d: Sum(rhs),rhsMax =   3.58387177296056E-05  3.66476589874359E-03
 cg2d: Sum(rhs),rhsMax =   3.58470676117576E-05  3.66631517724300E-03
 cg2d: Sum(rhs),rhsMax =   3.58555009687895E-05  3.66786484910350E-03
 cg2d: Sum(rhs),rhsMax =   3.58639707706727E-05  3.66941491260892E-03
 cg2d: Sum(rhs),rhsMax =   3.58725201180052E-05  3.67096536558543E-03
 cg2d: Sum(rhs),rhsMax =   3.58811356684233E-05  3.67251620642603E-03
 cg2d: Sum(rhs),rhsMax =   3.58898194370268E-05  3.67406743281416E-03
 cg2d: Sum(rhs),rhsMax =   3.58985745120520E-05  3.67561904400357E-03
 cg2d: Sum(rhs),rhsMax =   3.59073704932281E-05  3.67717103601709E-03
 cg2d: Sum(rhs),rhsMax =   3.59162537882504E-05  3.67872340897622E-03
 cg2d: Sum(rhs),rhsMax =   3.59251855324020E-05  3.68027615998922E-03
 cg2d: Sum(rhs),rhsMax =   3.59342071939951E-05  3.68182928770870E-03
 cg2d: Sum(rhs),rhsMax =   3.59432151494912E-05  3.68338923971286E-03
 cg2d: Sum(rhs),rhsMax =   3.59522689769255E-05  3.68495011410359E-03
 cg2d: Sum(rhs),rhsMax =   3.59613961023950E-05  3.68651135450725E-03
 cg2d: Sum(rhs),rhsMax =   3.59705545439669E-05  3.68807296019357E-03
 cg2d: Sum(rhs),rhsMax =   3.59798026361305E-05  3.68963492768923E-03
 cg2d: Sum(rhs),rhsMax =   3.59890999199856E-05  3.69119725668827E-03
 cg2d: Sum(rhs),rhsMax =   3.59984758268525E-05  3.69275994382638E-03
 cg2d: Sum(rhs),rhsMax =   3.60079062201859E-05  3.69432298901894E-03
 cg2d: Sum(rhs),rhsMax =   3.60174047840224E-05  3.69588638856511E-03
 cg2d: Sum(rhs),rhsMax =   3.60269416063985E-05  3.69745014172452E-03
 cg2d: Sum(rhs),rhsMax =   3.60365543777066E-05  3.69901424536239E-03
 cg2d: Sum(rhs),rhsMax =   3.60462179373831E-05  3.70057869873953E-03
 cg2d: Sum(rhs),rhsMax =   3.60559706461478E-05  3.70214349902215E-03
 cg2d: Sum(rhs),rhsMax =   3.60657480901454E-05  3.70370864507437E-03
 cg2d: Sum(rhs),rhsMax =   3.60755896705225E-05  3.70527413425632E-03
 cg2d: Sum(rhs),rhsMax =   3.60854902194015E-05  3.70683996528468E-03
 cg2d: Sum(rhs),rhsMax =   3.60954255858052E-05  3.70840613562885E-03
 cg2d: Sum(rhs),rhsMax =   3.61054446344714E-05  3.70997264392678E-03
 cg2d: Sum(rhs),rhsMax =   3.61155086907273E-05  3.71153948771349E-03
 cg2d: Sum(rhs),rhsMax =   3.61256301839039E-05  3.71310666556647E-03
 cg2d: Sum(rhs),rhsMax =   3.61357965568965E-05  3.71467417508658E-03
 cg2d: Sum(rhs),rhsMax =   3.61460467287822E-05  3.71624201476892E-03
 cg2d: Sum(rhs),rhsMax =   3.61563354722150E-05  3.71781018234146E-03
 cg2d: Sum(rhs),rhsMax =   3.61666891252142E-05  3.71937867610692E-03
 cg2d: Sum(rhs),rhsMax =   3.61770754325891E-05  3.72094749415868E-03
 cg2d: Sum(rhs),rhsMax =   3.61875145677660E-05  3.72251663406488E-03
 cg2d: Sum(rhs),rhsMax =   3.61979952936756E-05  3.72408609438949E-03
 cg2d: Sum(rhs),rhsMax =   3.62085471430221E-05  3.72565587266883E-03
 cg2d: Sum(rhs),rhsMax =   3.62191366972599E-05  3.72722596804107E-03
 cg2d: Sum(rhs),rhsMax =   3.62297812584282E-05  3.72879637809757E-03
 cg2d: Sum(rhs),rhsMax =   3.62404744161174E-05  3.73036710095015E-03
 cg2d: Sum(rhs),rhsMax =   3.62512463253735E-05  3.73193813392745E-03
 cg2d: Sum(rhs),rhsMax =   3.62620626082255E-05  3.73350947597833E-03
(PID.TID 0000.0001)      cg2d_init_res =   2.60776065344855E-02
(PID.TID 0000.0001)      cg2d_iters(min,last) =      -1     410
(PID.TID 0000.0001)      cg2d_last_res =   9.48547142206776E-08
(PID.TID 0000.0001) // =======================================================
(PID.TID 0000.0001) // Begin MONITOR dynamic field statistics
(PID.TID 0000.0001) // =======================================================
(PID.TID 0000.0001) %MON time_tsnumber                =                  2160
(PID.TID 0000.0001) %MON time_secondsf                =   2.5920000000000E+06
(PID.TID 0000.0001) %MON dynstat_eta_max              =   3.6840938115130E-02
(PID.TID 0000.0001) %MON dynstat_eta_min              =  -7.6725539418010E-02
(PID.TID 0000.0001) %MON dynstat_eta_mean             =  -6.4473104629804E-10
(PID.TID 0000.0001) %MON dynstat_eta_sd               =   3.1471667554483E-02
(PID.TID 0000.0001) %MON dynstat_eta_del2             =   1.8260715671553E-07
(PID.TID 0000.0001) %MON dynstat_uvel_max             =   3.1086485281247E-02
(PID.TID 0000.0001) %MON dynstat_uvel_min             =  -3.3765687650284E-02
(PID.TID 0000.0001) %MON dynstat_uvel_mean            =   2.5212526341819E-07
(PID.TID 0000.0001) %MON dynstat_uvel_sd              =   1.2909115426290E-02
(PID.TID 0000.0001) %MON dynstat_uvel_del2            =   4.2314072258830E-07
(PID.TID 0000.0001) %MON dynstat_vvel_max             =   2.4943924454890E-02
(PID.TID 0000.0001) %MON dynstat_vvel_min             =  -2.7065044866785E-02
(PID.TID 0000.0001) %MON dynstat_vvel_mean            =  -5.9873489237213E-07
(PID.TID 0000.0001) %MON dynstat_vvel_sd              =   1.1451926237241E-02
(PID.TID 0000.0001) %MON dynstat_vvel_del2            =   4.1349065442344E-07
(PID.TID 0000.0001) %MON dynstat_wvel_max             =   3.6502530482539E-08
(PID.TID 0000.0001) %MON dynstat_wvel_min             =  -4.0865593957715E-08
(PID.TID 0000.0001) %MON dynstat_wvel_mean            =   8.0674072197813E-22
(PID.TID 0000.0001) %MON dynstat_wvel_sd              =   1.5662141312819E-08
(PID.TID 0000.0001) %MON dynstat_wvel_del2            =   1.0397447278137E-13
(PID.TID 0000.0001) %MON dynstat_theta_max            =   2.0000000000000E+01
(PID.TID 0000.0001) %MON dynstat_theta_min            =   2.0000000000000E+01
(PID.TID 0000.0001) %MON dynstat_theta_mean           =   1.9999999999999E+01
(PID.TID 0000.0001) %MON dynstat_theta_sd             =   1.1972645097557E-12
(PID.TID 0000.0001) %MON dynstat_theta_del2           =   0.0000000000000E+00
(PID.TID 0000.0001) %MON dynstat_salt_max             =   3.0000000000000E+01
(PID.TID 0000.0001) %MON dynstat_salt_min             =   3.0000000000000E+01
(PID.TID 0000.0001) %MON dynstat_salt_mean            =   2.9999999999998E+01
(PID.TID 0000.0001) %MON dynstat_salt_sd              =   2.1529444893531E-12
(PID.TID 0000.0001) %MON dynstat_salt_del2            =   0.0000000000000E+00
(PID.TID 0000.0001) %MON trAdv_CFL_u_max              =   8.1000689098791E-03
(PID.TID 0000.0001) %MON trAdv_CFL_v_max              =   6.4941504474943E-03
(PID.TID 0000.0001) %MON trAdv_CFL_w_max              =   9.2575819043390E-09
(PID.TID 0000.0001) %MON advcfl_uvel_max              =   8.1037650360681E-03
(PID.TID 0000.0001) %MON advcfl_vvel_max              =   6.4956107680283E-03
(PID.TID 0000.0001) %MON advcfl_wvel_max              =   1.9615485099703E-08
(PID.TID 0000.0001) %MON advcfl_W_hf_max              =   0.0000000000000E+00
(PID.TID 0000.0001) %MON pe_b_mean                    =   1.0133822354211E-06
(PID.TID 0000.0001) %MON ke_max                       =   5.7011342285834E-04
(PID.TID 0000.0001) %MON ke_mean                      =   1.4822570074479E-04
(PID.TID 0000.0001) %MON ke_vol                       =   7.2529629296391E+15
(PID.TID 0000.0001) %MON vort_r_min                   =  -1.1938328650404E-06
(PID.TID 0000.0001) %MON vort_r_max                   =   9.8959186511488E-07
(PID.TID 0000.0001) %MON vort_a_mean                  =   1.0615000000000E-04
(PID.TID 0000.0001) %MON vort_a_sd                    =   3.5703504988873E-06
(PID.TID 0000.0001) %MON vort_p_mean                  =   1.1210870169429E-04
(PID.TID 0000.0001) %MON vort_p_sd                    =   2.1054656200939E-05
(PID.TID 0000.0001) %MON surfExpan_theta_mean         =   1.6254004407055E-20
(PID.TID 0000.0001) %MON surfExpan_salt_mean          =   2.5732301183475E-20
(PID.TID 0000.0001) // =======================================================
(PID.TID 0000.0001) // End MONITOR dynamic field statistics
(PID.TID 0000.0001) // =======================================================
 cg2d: Sum(rhs),rhsMax =   3.62728923443394E-05  3.73508112449369E-03
 cg2d: Sum(rhs),rhsMax =   3.62838235060253E-05  3.73665307814802E-03
 cg2d: Sum(rhs),rhsMax =   3.62947746003137E-05  3.73822533454386E-03
 cg2d: Sum(rhs),rhsMax =   3.63057571045461E-05  3.73979789209007E-03
 cg2d: Sum(rhs),rhsMax =   3.63168189022036E-05  3.74137074877851E-03
 cg2d: Sum(rhs),rhsMax =   3.63278988089084E-05  3.74294390234456E-03
 cg2d: Sum(rhs),rhsMax =   3.63390276729679E-05  3.74451735122837E-03
 cg2d: Sum(rhs),rhsMax =   3.63502035788006E-05  3.74609109271249E-03
 cg2d: Sum(rhs),rhsMax =   3.63614408573692E-05  3.74766512712304E-03
 cg2d: Sum(rhs),rhsMax =   3.63727198374507E-05  3.74923945000176E-03
 cg2d: Sum(rhs),rhsMax =   3.63840559419295E-05  3.75081406116509E-03
 cg2d: Sum(rhs),rhsMax =   3.63954381467219E-05  3.75238895689543E-03
 cg2d: Sum(rhs),rhsMax =   3.64068580091465E-05  3.75396413706895E-03
 cg2d: Sum(rhs),rhsMax =   3.64183128529561E-05  3.75553959830707E-03
 cg2d: Sum(rhs),rhsMax =   3.64298043513201E-05  3.75711534025509E-03
 cg2d: Sum(rhs),rhsMax =   3.64413458787015E-05  3.75869135867590E-03
 cg2d: Sum(rhs),rhsMax =   3.64529378779786E-05  3.76026765366595E-03
 cg2d: Sum(rhs),rhsMax =   3.64645790401881E-05  3.76184422256219E-03
 cg2d: Sum(rhs),rhsMax =   3.64762573763448E-05  3.76342106422937E-03
 cg2d: Sum(rhs),rhsMax =   3.64879716226287E-05  3.76499817538893E-03
 cg2d: Sum(rhs),rhsMax =   3.64997660155641E-05  3.76657555539664E-03
 cg2d: Sum(rhs),rhsMax =   3.65115625443084E-05  3.76815320122315E-03
 cg2d: Sum(rhs),rhsMax =   3.65267508047329E-05  3.76973111312904E-03
 cg2d: Sum(rhs),rhsMax =   3.65419972716136E-05  3.77130928690869E-03
 cg2d: Sum(rhs),rhsMax =   3.65572738356516E-05  3.77288771953157E-03
 cg2d: Sum(rhs),rhsMax =   3.65725908974095E-05  3.77446641214869E-03
 cg2d: Sum(rhs),rhsMax =   3.65879587199552E-05  3.77604536001321E-03
 cg2d: Sum(rhs),rhsMax =   3.66033753743441E-05  3.77762456382645E-03
 cg2d: Sum(rhs),rhsMax =   3.66188354449480E-05  3.77920401927339E-03
 cg2d: Sum(rhs),rhsMax =   3.66343391001106E-05  3.78078372676833E-03
 cg2d: Sum(rhs),rhsMax =   3.66498697967430E-05  3.78236368211185E-03
 cg2d: Sum(rhs),rhsMax =   3.66654423370853E-05  3.78394388557699E-03
 cg2d: Sum(rhs),rhsMax =   3.66810747952483E-05  3.78552433310625E-03
 cg2d: Sum(rhs),rhsMax =   3.66967256238250E-05  3.78710502484935E-03
 cg2d: Sum(rhs),rhsMax =   3.67124247149979E-05  3.78868595685578E-03
 cg2d: Sum(rhs),rhsMax =   3.67281737984008E-05  3.79026712919735E-03
 cg2d: Sum(rhs),rhsMax =   3.67439472863124E-05  3.79184853798126E-03
 cg2d: Sum(rhs),rhsMax =   3.67597434781956E-05  3.79343018323627E-03
 cg2d: Sum(rhs),rhsMax =   3.67755960293788E-05  3.79501223684646E-03
 cg2d: Sum(rhs),rhsMax =   3.67914155262657E-05  3.79660084637733E-03
 cg2d: Sum(rhs),rhsMax =   3.68072834016709E-05  3.79818968031041E-03
 cg2d: Sum(rhs),rhsMax =   3.68231712088224E-05  3.79977873708319E-03
 cg2d: Sum(rhs),rhsMax =   3.68391085134806E-05  3.80136801438593E-03
 cg2d: Sum(rhs),rhsMax =   3.68550877621887E-05  3.80295751065005E-03
 cg2d: Sum(rhs),rhsMax =   3.68711004507527E-05  3.80454722357595E-03
 cg2d: Sum(rhs),rhsMax =   3.68871669116731E-05  3.80613715158891E-03
 cg2d: Sum(rhs),rhsMax =   3.69032290842121E-05  3.80772729239770E-03
 cg2d: Sum(rhs),rhsMax =   3.69193571116908E-05  3.80931764441817E-03
 cg2d: Sum(rhs),rhsMax =   3.69355193635817E-05  3.81090820537360E-03
 cg2d: Sum(rhs),rhsMax =   3.69517077040459E-05  3.81249897366824E-03
 cg2d: Sum(rhs),rhsMax =   3.69679430650294E-05  3.81408994703550E-03
 cg2d: Sum(rhs),rhsMax =   3.69841807189462E-05  3.81568112387117E-03
 cg2d: Sum(rhs),rhsMax =   3.70004587033146E-05  3.81727250192457E-03
 cg2d: Sum(rhs),rhsMax =   3.70167635012509E-05  3.81886407957641E-03
 cg2d: Sum(rhs),rhsMax =   3.70331089247812E-05  3.82045585459382E-03
 cg2d: Sum(rhs),rhsMax =   3.70494858291937E-05  3.82204782533921E-03
 cg2d: Sum(rhs),rhsMax =   3.70658851913232E-05  3.82363998960033E-03
 cg2d: Sum(rhs),rhsMax =   3.70823128767314E-05  3.82523234572503E-03
 cg2d: Sum(rhs),rhsMax =   3.70987966182177E-05  3.82682489151933E-03
 cg2d: Sum(rhs),rhsMax =   3.71152923961367E-05  3.82841762531040E-03
 cg2d: Sum(rhs),rhsMax =   3.71318166203635E-05  3.83001054493174E-03
 cg2d: Sum(rhs),rhsMax =   3.71483718371616E-05  3.83160364868497E-03
 cg2d: Sum(rhs),rhsMax =   3.71649552033081E-05  3.83319693442823E-03
 cg2d: Sum(rhs),rhsMax =   3.71815687614857E-05  3.83479040044435E-03
 cg2d: Sum(rhs),rhsMax =   3.71982039180253E-05  3.83638404461705E-03
 cg2d: Sum(rhs),rhsMax =   3.72189301724463E-05  3.83797786312869E-03
 cg2d: Sum(rhs),rhsMax =   3.72396861650429E-05  3.83957185790480E-03
 cg2d: Sum(rhs),rhsMax =   3.72604658933871E-05  3.84116602541558E-03
 cg2d: Sum(rhs),rhsMax =   3.72812672530714E-05  3.84276036331395E-03
 cg2d: Sum(rhs),rhsMax =   3.73021038941922E-05  3.84435487017084E-03
 cg2d: Sum(rhs),rhsMax =   3.73229539585218E-05  3.84594954335547E-03
 cg2d: Sum(rhs),rhsMax =   3.73438432831504E-05  3.84754438178593E-03
(PID.TID 0000.0001)      cg2d_init_res =   2.50692655168800E-02
(PID.TID 0000.0001)      cg2d_iters(min,last) =      -1     408
(PID.TID 0000.0001)      cg2d_last_res =   9.96022326571029E-08
(PID.TID 0000.0001) // =======================================================
(PID.TID 0000.0001) // Begin MONITOR dynamic field statistics
(PID.TID 0000.0001) // =======================================================
(PID.TID 0000.0001) %MON time_tsnumber                =                  2232
(PID.TID 0000.0001) %MON time_secondsf                =   2.6784000000000E+06
(PID.TID 0000.0001) %MON dynstat_eta_max              =   3.8065253835758E-02
(PID.TID 0000.0001) %MON dynstat_eta_min              =  -7.8522024607583E-02
(PID.TID 0000.0001) %MON dynstat_eta_mean             =  -6.8441850933218E-10
(PID.TID 0000.0001) %MON dynstat_eta_sd               =   3.2310954691184E-02
(PID.TID 0000.0001) %MON dynstat_eta_del2             =   1.8611350648609E-07
(PID.TID 0000.0001) %MON dynstat_uvel_max             =   3.1861979955408E-02
(PID.TID 0000.0001) %MON dynstat_uvel_min             =  -3.4885985255906E-02
(PID.TID 0000.0001) %MON dynstat_uvel_mean            =   1.8149078288801E-07
(PID.TID 0000.0001) %MON dynstat_uvel_sd              =   1.3330043506587E-02
(PID.TID 0000.0001) %MON dynstat_uvel_del2            =   4.3847767509172E-07
(PID.TID 0000.0001) %MON dynstat_vvel_max             =   2.5321046941754E-02
(PID.TID 0000.0001) %MON dynstat_vvel_min             =  -2.7345021143232E-02
(PID.TID 0000.0001) %MON dynstat_vvel_mean            =  -6.2249875845424E-07
(PID.TID 0000.0001) %MON dynstat_vvel_sd              =   1.1564609680657E-02
(PID.TID 0000.0001) %MON dynstat_vvel_del2            =   4.2193269888875E-07
(PID.TID 0000.0001) %MON dynstat_wvel_max             =   3.8620896537614E-08
(PID.TID 0000.0001) %MON dynstat_wvel_min             =  -3.8581305951811E-08
(PID.TID 0000.0001) %MON dynstat_wvel_mean            =   7.8246782691753E-23
(PID.TID 0000.0001) %MON dynstat_wvel_sd              =   1.5524034062784E-08
(PID.TID 0000.0001) %MON dynstat_wvel_del2            =   1.0306342114343E-13
(PID.TID 0000.0001) %MON dynstat_theta_max            =   2.0000000000000E+01
(PID.TID 0000.0001) %MON dynstat_theta_min            =   2.0000000000000E+01
(PID.TID 0000.0001) %MON dynstat_theta_mean           =   1.9999999999999E+01
(PID.TID 0000.0001) %MON dynstat_theta_sd             =   1.1972645097557E-12
(PID.TID 0000.0001) %MON dynstat_theta_del2           =   0.0000000000000E+00
(PID.TID 0000.0001) %MON dynstat_salt_max             =   3.0000000000000E+01
(PID.TID 0000.0001) %MON dynstat_salt_min             =   3.0000000000000E+01
(PID.TID 0000.0001) %MON dynstat_salt_mean            =   2.9999999999998E+01
(PID.TID 0000.0001) %MON dynstat_salt_sd              =   2.1529444893531E-12
(PID.TID 0000.0001) %MON dynstat_salt_del2            =   0.0000000000000E+00
(PID.TID 0000.0001) %MON trAdv_CFL_u_max              =   8.3688532385704E-03
(PID.TID 0000.0001) %MON trAdv_CFL_v_max              =   6.5613654539627E-03
(PID.TID 0000.0001) %MON trAdv_CFL_w_max              =   9.8003470874015E-09
(PID.TID 0000.0001) %MON advcfl_uvel_max              =   8.3726364614174E-03
(PID.TID 0000.0001) %MON advcfl_vvel_max              =   6.5628050743756E-03
(PID.TID 0000.0001) %MON advcfl_wvel_max              =   1.8538030338055E-08
(PID.TID 0000.0001) %MON advcfl_W_hf_max              =   0.0000000000000E+00
(PID.TID 0000.0001) %MON pe_b_mean                    =   1.0681527364638E-06
(PID.TID 0000.0001) %MON ke_max                       =   6.0857792637502E-04
(PID.TID 0000.0001) %MON ke_mean                      =   1.5501419563211E-04
(PID.TID 0000.0001) %MON ke_vol                       =   7.2529629296391E+15
(PID.TID 0000.0001) %MON vort_r_min                   =  -1.2309125713718E-06
(PID.TID 0000.0001) %MON vort_r_max                   =   1.0254944088853E-06
(PID.TID 0000.0001) %MON vort_a_mean                  =   1.0615000000000E-04
(PID.TID 0000.0001) %MON vort_a_sd                    =   3.5705862132229E-06
(PID.TID 0000.0001) %MON vort_p_mean                  =   1.1210870169429E-04
(PID.TID 0000.0001) %MON vort_p_sd                    =   2.1054578176923E-05
(PID.TID 0000.0001) %MON surfExpan_theta_mean         =   1.5997050850203E-21
(PID.TID 0000.0001) %MON surfExpan_salt_mean          =   2.8919450980644E-21
(PID.TID 0000.0001) // =======================================================
(PID.TID 0000.0001) // End MONITOR dynamic field statistics
(PID.TID 0000.0001) // =======================================================
 cg2d: Sum(rhs),rhsMax =   3.73647289265994E-05  3.84913938257841E-03
 cg2d: Sum(rhs),rhsMax =   3.73856678875517E-05  3.85073454476372E-03
 cg2d: Sum(rhs),rhsMax =   3.74066220827406E-05  3.85232986582958E-03
 cg2d: Sum(rhs),rhsMax =   3.74276291887814E-05  3.85392534406654E-03
 cg2d: Sum(rhs),rhsMax =   3.74486459903036E-05  3.85552097749090E-03
 cg2d: Sum(rhs),rhsMax =   3.74696905604838E-05  3.85711676432492E-03
 cg2d: Sum(rhs),rhsMax =   3.74907559847464E-05  3.85871270245069E-03
 cg2d: Sum(rhs),rhsMax =   3.75118416316511E-05  3.86030879018546E-03
 cg2d: Sum(rhs),rhsMax =   3.75329313640031E-05  3.86190502535554E-03
 cg2d: Sum(rhs),rhsMax =   3.75540711817944E-05  3.86350140637269E-03
 cg2d: Sum(rhs),rhsMax =   3.75752169744044E-05  3.86509793099212E-03
 cg2d: Sum(rhs),rhsMax =   3.75963770725971E-05  3.86669459761149E-03
 cg2d: Sum(rhs),rhsMax =   3.76175639647102E-05  3.86829140400793E-03
 cg2d: Sum(rhs),rhsMax =   3.76387737808133E-05  3.86988834865000E-03
 cg2d: Sum(rhs),rhsMax =   3.76600211899137E-05  3.87148542920153E-03
 cg2d: Sum(rhs),rhsMax =   3.76812770427476E-05  3.87308264421228E-03
 cg2d: Sum(rhs),rhsMax =   3.77025475759617E-05  3.87467999142782E-03
 cg2d: Sum(rhs),rhsMax =   3.77238466485116E-05  3.87627746912416E-03
 cg2d: Sum(rhs),rhsMax =   3.77451498322235E-05  3.87787507508899E-03
 cg2d: Sum(rhs),rhsMax =   3.77664696615933E-05  3.87947280814527E-03
 cg2d: Sum(rhs),rhsMax =   3.77878119686608E-05  3.88107066552650E-03
 cg2d: Sum(rhs),rhsMax =   3.78091941543408E-05  3.88266864611526E-03
 cg2d: Sum(rhs),rhsMax =   3.78305652288463E-05  3.88426674723003E-03
 cg2d: Sum(rhs),rhsMax =   3.78519618545649E-05  3.88586496781297E-03
 cg2d: Sum(rhs),rhsMax =   3.78733622705615E-05  3.88746330509891E-03
 cg2d: Sum(rhs),rhsMax =   3.78947844787095E-05  3.88906175810724E-03
 cg2d: Sum(rhs),rhsMax =   3.79162304131814E-05  3.89066032403603E-03
 cg2d: Sum(rhs),rhsMax =   3.79376684368597E-05  3.89225900156627E-03
 cg2d: Sum(rhs),rhsMax =   3.79591572483382E-05  3.89385778871042E-03
 cg2d: Sum(rhs),rhsMax =   3.79806369477115E-05  3.89545668373863E-03
 cg2d: Sum(rhs),rhsMax =   3.80021466702060E-05  3.89705568425029E-03
 cg2d: Sum(rhs),rhsMax =   3.80236617792797E-05  3.89865478895404E-03
 cg2d: Sum(rhs),rhsMax =   3.80451885840568E-05  3.90025399544740E-03
 cg2d: Sum(rhs),rhsMax =   3.80667249028884E-05  3.90185330239315E-03
 cg2d: Sum(rhs),rhsMax =   3.80882862454262E-05  3.90345270713772E-03
 cg2d: Sum(rhs),rhsMax =   3.81098483220269E-05  3.90505220860634E-03
 cg2d: Sum(rhs),rhsMax =   3.81314392535331E-05  3.90665180434886E-03
 cg2d: Sum(rhs),rhsMax =   3.81530249987348E-05  3.90825149304147E-03
 cg2d: Sum(rhs),rhsMax =   3.81746474897304E-05  3.90985127200591E-03
 cg2d: Sum(rhs),rhsMax =   3.81962727133292E-05  3.91145114019929E-03
 cg2d: Sum(rhs),rhsMax =   3.82179066117320E-05  3.91305109505634E-03
 cg2d: Sum(rhs),rhsMax =   3.82395169112610E-05  3.91465113543403E-03
 cg2d: Sum(rhs),rhsMax =   3.82611607032766E-05  3.91625125853243E-03
 cg2d: Sum(rhs),rhsMax =   3.82828218830882E-05  3.91785146343936E-03
 cg2d: Sum(rhs),rhsMax =   3.83045062909418E-05  3.91945174747811E-03
 cg2d: Sum(rhs),rhsMax =   3.83261742920686E-05  3.92105210950663E-03
 cg2d: Sum(rhs),rhsMax =   3.83478400326131E-05  3.92265254690516E-03
 cg2d: Sum(rhs),rhsMax =   3.83694826975312E-05  3.92425885317223E-03
 cg2d: Sum(rhs),rhsMax =   3.83911092578645E-05  3.92586531335949E-03
 cg2d: Sum(rhs),rhsMax =   3.84127541937576E-05  3.92747183758069E-03
 cg2d: Sum(rhs),rhsMax =   3.84344469858879E-05  3.92907842390631E-03
 cg2d: Sum(rhs),rhsMax =   3.84560922472967E-05  3.93068507017448E-03
 cg2d: Sum(rhs),rhsMax =   3.84777481488531E-05  3.93229177583731E-03
 cg2d: Sum(rhs),rhsMax =   3.84994560740006E-05  3.93389853628963E-03
 cg2d: Sum(rhs),rhsMax =   3.85211361778534E-05  3.93550535302401E-03
 cg2d: Sum(rhs),rhsMax =   3.85428298397082E-05  3.93711222090724E-03
 cg2d: Sum(rhs),rhsMax =   3.85645119093695E-05  3.93871914128571E-03
 cg2d: Sum(rhs),rhsMax =   3.85862210254984E-05  3.94032610894154E-03
 cg2d: Sum(rhs),rhsMax =   3.86079352408192E-05  3.94193312542534E-03
 cg2d: Sum(rhs),rhsMax =   3.86296661699049E-05  3.94354018552772E-03
 cg2d: Sum(rhs),rhsMax =   3.86513763203627E-05  3.94514729046159E-03
 cg2d: Sum(rhs),rhsMax =   3.86730920373278E-05  3.94675443579079E-03
 cg2d: Sum(rhs),rhsMax =   3.86948180679473E-05  3.94836162226642E-03
 cg2d: Sum(rhs),rhsMax =   3.87253275109323E-05  3.94996884658370E-03
 cg2d: Sum(rhs),rhsMax =   3.87558178456104E-05  3.95157610584048E-03
 cg2d: Sum(rhs),rhsMax =   3.87863394057317E-05  3.95318339896513E-03
 cg2d: Sum(rhs),rhsMax =   3.88168430110443E-05  3.95479072456498E-03
 cg2d: Sum(rhs),rhsMax =   3.88473543591530E-05  3.95639808049502E-03
 cg2d: Sum(rhs),rhsMax =   3.88778307941111E-05  3.95800546508675E-03
 cg2d: Sum(rhs),rhsMax =   3.89083252732001E-05  3.95961287614055E-03
 cg2d: Sum(rhs),rhsMax =   3.89388043461432E-05  3.96122031191557E-03
 cg2d: Sum(rhs),rhsMax =   3.89692875555864E-05  3.96282777100739E-03
(PID.TID 0000.0001)      cg2d_init_res =   2.41454517375765E-02
(PID.TID 0000.0001)      cg2d_iters(min,last) =      -1     406
(PID.TID 0000.0001)      cg2d_last_res =   9.90448254273873E-08
(PID.TID 0000.0001) // =======================================================
(PID.TID 0000.0001) // Begin MONITOR dynamic field statistics
(PID.TID 0000.0001) // =======================================================
(PID.TID 0000.0001) %MON time_tsnumber                =                  2304
(PID.TID 0000.0001) %MON time_secondsf                =   2.7648000000000E+06
(PID.TID 0000.0001) %MON dynstat_eta_max              =   3.9808759687071E-02
(PID.TID 0000.0001) %MON dynstat_eta_min              =  -8.0375834624634E-02
(PID.TID 0000.0001) %MON dynstat_eta_mean             =  -7.3576517386225E-10
(PID.TID 0000.0001) %MON dynstat_eta_sd               =   3.3180173684797E-02
(PID.TID 0000.0001) %MON dynstat_eta_del2             =   1.9004860166747E-07
(PID.TID 0000.0001) %MON dynstat_uvel_max             =   3.2557274932022E-02
(PID.TID 0000.0001) %MON dynstat_uvel_min             =  -3.6030594778101E-02
(PID.TID 0000.0001) %MON dynstat_uvel_mean            =   1.1140138029480E-07
(PID.TID 0000.0001) %MON dynstat_uvel_sd              =   1.3750876815937E-02
(PID.TID 0000.0001) %MON dynstat_uvel_del2            =   4.5267392677161E-07
(PID.TID 0000.0001) %MON dynstat_vvel_max             =   2.5718478668709E-02
(PID.TID 0000.0001) %MON dynstat_vvel_min             =  -2.7612518818224E-02
(PID.TID 0000.0001) %MON dynstat_vvel_mean            =  -6.3336118861535E-07
(PID.TID 0000.0001) %MON dynstat_vvel_sd              =   1.1700129190117E-02
(PID.TID 0000.0001) %MON dynstat_vvel_del2            =   4.3472249068391E-07
(PID.TID 0000.0001) %MON dynstat_wvel_max             =   4.0378757963481E-08
(PID.TID 0000.0001) %MON dynstat_wvel_min             =  -3.6181238018908E-08
(PID.TID 0000.0001) %MON dynstat_wvel_mean            =   5.6670863447059E-22
(PID.TID 0000.0001) %MON dynstat_wvel_sd              =   1.5382597583959E-08
(PID.TID 0000.0001) %MON dynstat_wvel_del2            =   1.0204999160880E-13
(PID.TID 0000.0001) %MON dynstat_theta_max            =   2.0000000000000E+01
(PID.TID 0000.0001) %MON dynstat_theta_min            =   2.0000000000000E+01
(PID.TID 0000.0001) %MON dynstat_theta_mean           =   1.9999999999999E+01
(PID.TID 0000.0001) %MON dynstat_theta_sd             =   1.1972645097557E-12
(PID.TID 0000.0001) %MON dynstat_theta_del2           =   0.0000000000000E+00
(PID.TID 0000.0001) %MON dynstat_salt_max             =   3.0000000000000E+01
(PID.TID 0000.0001) %MON dynstat_salt_min             =   3.0000000000000E+01
(PID.TID 0000.0001) %MON dynstat_salt_mean            =   2.9999999999998E+01
(PID.TID 0000.0001) %MON dynstat_salt_sd              =   2.1529444893531E-12
(PID.TID 0000.0001) %MON dynstat_salt_del2            =   0.0000000000000E+00
(PID.TID 0000.0001) %MON trAdv_CFL_u_max              =   8.6434974870494E-03
(PID.TID 0000.0001) %MON trAdv_CFL_v_max              =   6.6255781585861E-03
(PID.TID 0000.0001) %MON trAdv_CFL_w_max              =   1.0251150844581E-08
(PID.TID 0000.0001) %MON advcfl_uvel_max              =   8.6473427467443E-03
(PID.TID 0000.0001) %MON advcfl_vvel_max              =   6.6270045163738E-03
(PID.TID 0000.0001) %MON advcfl_wvel_max              =   1.9381803822471E-08
(PID.TID 0000.0001) %MON advcfl_W_hf_max              =   0.0000000000000E+00
(PID.TID 0000.0001) %MON pe_b_mean                    =   1.1263959672652E-06
(PID.TID 0000.0001) %MON ke_max                       =   6.4917688899868E-04
(PID.TID 0000.0001) %MON ke_mean                      =   1.6225613914153E-04
(PID.TID 0000.0001) %MON ke_vol                       =   7.2529629296391E+15
(PID.TID 0000.0001) %MON vort_r_min                   =  -1.2686665021779E-06
(PID.TID 0000.0001) %MON vort_r_max                   =   1.0774795131987E-06
(PID.TID 0000.0001) %MON vort_a_mean                  =   1.0615000000000E-04
(PID.TID 0000.0001) %MON vort_a_sd                    =   3.5708525131896E-06
(PID.TID 0000.0001) %MON vort_p_mean                  =   1.1210870169429E-04
(PID.TID 0000.0001) %MON vort_p_sd                    =   2.1054507299073E-05
(PID.TID 0000.0001) %MON surfExpan_theta_mean         =   1.1543940941416E-20
(PID.TID 0000.0001) %MON surfExpan_salt_mean          =   1.7808524170826E-20
(PID.TID 0000.0001) // =======================================================
(PID.TID 0000.0001) // End MONITOR dynamic field statistics
(PID.TID 0000.0001) // =======================================================
 cg2d: Sum(rhs),rhsMax =   3.89997450659920E-05  3.96443525110051E-03
 cg2d: Sum(rhs),rhsMax =   3.90302120557950E-05  3.96604275056006E-03
 cg2d: Sum(rhs),rhsMax =   3.90606785558275E-05  3.96765026718913E-03
 cg2d: Sum(rhs),rhsMax =   3.90911426431943E-05  3.96925779975424E-03
 cg2d: Sum(rhs),rhsMax =   3.91215830756629E-05  3.97086534574747E-03
 cg2d: Sum(rhs),rhsMax =   3.91520325280382E-05  3.97247290394871E-03
 cg2d: Sum(rhs),rhsMax =   3.91824606257277E-05  3.97408047210063E-03
 cg2d: Sum(rhs),rhsMax =   3.92128692516484E-05  3.97568804808973E-03
 cg2d: Sum(rhs),rhsMax =   3.92432714687932E-05  3.97729563193585E-03
 cg2d: Sum(rhs),rhsMax =   3.92736958011531E-05  3.97890321854645E-03
 cg2d: Sum(rhs),rhsMax =   3.93041040915583E-05  3.98051080962020E-03
 cg2d: Sum(rhs),rhsMax =   3.93344932874138E-05  3.98211839984291E-03
 cg2d: Sum(rhs),rhsMax =   3.93648745008342E-05  3.98372599091588E-03
 cg2d: Sum(rhs),rhsMax =   3.93952601444284E-05  3.98533357760138E-03
 cg2d: Sum(rhs),rhsMax =   3.94256334493954E-05  3.98694116138590E-03
 cg2d: Sum(rhs),rhsMax =   3.94559888287896E-05  3.98854873716540E-03
 cg2d: Sum(rhs),rhsMax =   3.94863339059949E-05  3.99015630636084E-03
 cg2d: Sum(rhs),rhsMax =   3.95166615063990E-05  3.99176386392536E-03
 cg2d: Sum(rhs),rhsMax =   3.95470021728054E-05  3.99337141127112E-03
 cg2d: Sum(rhs),rhsMax =   3.95773058435855E-05  3.99497894344166E-03
 cg2d: Sum(rhs),rhsMax =   3.96076159099828E-05  3.99658646155817E-03
 cg2d: Sum(rhs),rhsMax =   3.96378948333562E-05  3.99819396118282E-03
 cg2d: Sum(rhs),rhsMax =   3.96681716725109E-05  3.99980144286345E-03
 cg2d: Sum(rhs),rhsMax =   3.96984415294670E-05  4.00140890212262E-03
 cg2d: Sum(rhs),rhsMax =   3.97287133955771E-05  4.00301634045595E-03
 cg2d: Sum(rhs),rhsMax =   3.97589424581024E-05  4.00462375256007E-03
 cg2d: Sum(rhs),rhsMax =   3.97891814746332E-05  4.00623113999123E-03
 cg2d: Sum(rhs),rhsMax =   3.98193850426713E-05  4.00783849770125E-03
 cg2d: Sum(rhs),rhsMax =   3.98496150120753E-05  4.00944582716436E-03
 cg2d: Sum(rhs),rhsMax =   3.98797946225809E-05  4.01105312345269E-03
 cg2d: Sum(rhs),rhsMax =   3.99099690135429E-05  4.01266038732405E-03
 cg2d: Sum(rhs),rhsMax =   3.99401356763135E-05  4.01426761455339E-03
 cg2d: Sum(rhs),rhsMax =   3.99702916980961E-05  4.01587480654134E-03
 cg2d: Sum(rhs),rhsMax =   4.00004296550976E-05  4.01748195753399E-03
 cg2d: Sum(rhs),rhsMax =   4.00305540884430E-05  4.01908906986322E-03
 cg2d: Sum(rhs),rhsMax =   4.00606644242515E-05  4.02069613785009E-03
 cg2d: Sum(rhs),rhsMax =   4.00907753621105E-05  4.02230316327958E-03
 cg2d: Sum(rhs),rhsMax =   4.01208525003891E-05  4.02391014130298E-03
 cg2d: Sum(rhs),rhsMax =   4.01509397244997E-05  4.02551707237375E-03
 cg2d: Sum(rhs),rhsMax =   4.01810040657584E-05  4.02712395371024E-03
 cg2d: Sum(rhs),rhsMax =   4.02110563498515E-05  4.02873078358264E-03
 cg2d: Sum(rhs),rhsMax =   4.02411058906195E-05  4.03033756008258E-03
 cg2d: Sum(rhs),rhsMax =   4.02711174025240E-05  4.03194428174257E-03
 cg2d: Sum(rhs),rhsMax =   4.03011309067043E-05  4.03355094676702E-03
 cg2d: Sum(rhs),rhsMax =   4.03311275474611E-05  4.03515755329834E-03
 cg2d: Sum(rhs),rhsMax =   4.03610780187213E-05  4.03676409947555E-03
 cg2d: Sum(rhs),rhsMax =   4.03910431777776E-05  4.03837058353369E-03
 cg2d: Sum(rhs),rhsMax =   4.04209858083236E-05  4.03997700419779E-03
 cg2d: Sum(rhs),rhsMax =   4.04508992537704E-05  4.04158335942034E-03
 cg2d: Sum(rhs),rhsMax =   4.04808156288846E-05  4.04318964673677E-03
 cg2d: Sum(rhs),rhsMax =   4.05107008867906E-05  4.04479586500656E-03
 cg2d: Sum(rhs),rhsMax =   4.05405885855240E-05  4.04640201266037E-03
 cg2d: Sum(rhs),rhsMax =   4.05704499201868E-05  4.04800808768391E-03
 cg2d: Sum(rhs),rhsMax =   4.06003076811367E-05  4.04961408847145E-03
 cg2d: Sum(rhs),rhsMax =   4.06301403048101E-05  4.05122001302803E-03
 cg2d: Sum(rhs),rhsMax =   4.06645219395972E-05  4.05282586155001E-03
 cg2d: Sum(rhs),rhsMax =   4.06989132487718E-05  4.05443162795526E-03
 cg2d: Sum(rhs),rhsMax =   4.07332573524586E-05  4.05603731436889E-03
 cg2d: Sum(rhs),rhsMax =   4.07721001077711E-05  4.05764291498479E-03
 cg2d: Sum(rhs),rhsMax =   4.08109092047441E-05  4.05924843189075E-03
 cg2d: Sum(rhs),rhsMax =   4.08497189130900E-05  4.06085386389743E-03
 cg2d: Sum(rhs),rhsMax =   4.08884761331067E-05  4.06245920589437E-03
 cg2d: Sum(rhs),rhsMax =   4.09272242162663E-05  4.06406445978121E-03
 cg2d: Sum(rhs),rhsMax =   4.09659296690913E-05  4.06566961991221E-03
 cg2d: Sum(rhs),rhsMax =   4.10046001561868E-05  4.06727468855574E-03
 cg2d: Sum(rhs),rhsMax =   4.10432638878440E-05  4.06887966020518E-03
 cg2d: Sum(rhs),rhsMax =   4.10818865375214E-05  4.07048453689934E-03
 cg2d: Sum(rhs),rhsMax =   4.11204225960996E-05  4.07209351694718E-03
 cg2d: Sum(rhs),rhsMax =   4.11589440455292E-05  4.07370330839428E-03
 cg2d: Sum(rhs),rhsMax =   4.11974224623934E-05  4.07531298969755E-03
 cg2d: Sum(rhs),rhsMax =   4.12359005246576E-05  4.07692256150708E-03
 cg2d: Sum(rhs),rhsMax =   4.12743184700173E-05  4.07853201880005E-03
(PID.TID 0000.0001)      cg2d_init_res =   2.33385366975009E-02
(PID.TID 0000.0001)      cg2d_iters(min,last) =      -1     404
(PID.TID 0000.0001)      cg2d_last_res =   9.87669309763186E-08
(PID.TID 0000.0001) // =======================================================
(PID.TID 0000.0001) // Begin MONITOR dynamic field statistics
(PID.TID 0000.0001) // =======================================================
(PID.TID 0000.0001) %MON time_tsnumber                =                  2376
(PID.TID 0000.0001) %MON time_secondsf                =   2.8512000000000E+06
(PID.TID 0000.0001) %MON dynstat_eta_max              =   4.1786735986022E-02
(PID.TID 0000.0001) %MON dynstat_eta_min              =  -8.2282799739647E-02
(PID.TID 0000.0001) %MON dynstat_eta_mean             =  -8.0214951656021E-10
(PID.TID 0000.0001) %MON dynstat_eta_sd               =   3.4074948158859E-02
(PID.TID 0000.0001) %MON dynstat_eta_del2             =   1.9438085131728E-07
(PID.TID 0000.0001) %MON dynstat_uvel_max             =   3.3164608607804E-02
(PID.TID 0000.0001) %MON dynstat_uvel_min             =  -3.7197513498681E-02
(PID.TID 0000.0001) %MON dynstat_uvel_mean            =   4.4856761851961E-08
(PID.TID 0000.0001) %MON dynstat_uvel_sd              =   1.4167893939534E-02
(PID.TID 0000.0001) %MON dynstat_uvel_del2            =   4.6539758043966E-07
(PID.TID 0000.0001) %MON dynstat_vvel_max             =   2.6143287258133E-02
(PID.TID 0000.0001) %MON dynstat_vvel_min             =  -2.7859116137713E-02
(PID.TID 0000.0001) %MON dynstat_vvel_mean            =  -6.3179029965441E-07
(PID.TID 0000.0001) %MON dynstat_vvel_sd              =   1.1862580461921E-02
(PID.TID 0000.0001) %MON dynstat_vvel_del2            =   4.5161252331386E-07
(PID.TID 0000.0001) %MON dynstat_wvel_max             =   4.1715617240552E-08
(PID.TID 0000.0001) %MON dynstat_wvel_min             =  -3.3726199250668E-08
(PID.TID 0000.0001) %MON dynstat_wvel_mean            =   3.5873276049676E-21
(PID.TID 0000.0001) %MON dynstat_wvel_sd              =   1.5225186726805E-08
(PID.TID 0000.0001) %MON dynstat_wvel_del2            =   1.0116181947841E-13
(PID.TID 0000.0001) %MON dynstat_theta_max            =   2.0000000000000E+01
(PID.TID 0000.0001) %MON dynstat_theta_min            =   2.0000000000000E+01
(PID.TID 0000.0001) %MON dynstat_theta_mean           =   1.9999999999999E+01
(PID.TID 0000.0001) %MON dynstat_theta_sd             =   1.1972645097557E-12
(PID.TID 0000.0001) %MON dynstat_theta_del2           =   0.0000000000000E+00
(PID.TID 0000.0001) %MON dynstat_salt_max             =   3.0000000000000E+01
(PID.TID 0000.0001) %MON dynstat_salt_min             =   3.0000000000000E+01
(PID.TID 0000.0001) %MON dynstat_salt_mean            =   2.9999999999998E+01
(PID.TID 0000.0001) %MON dynstat_salt_sd              =   2.1529444893531E-12
(PID.TID 0000.0001) %MON dynstat_salt_del2            =   0.0000000000000E+00
(PID.TID 0000.0001) %MON trAdv_CFL_u_max              =   8.9234881118426E-03
(PID.TID 0000.0001) %MON trAdv_CFL_v_max              =   6.6848910958544E-03
(PID.TID 0000.0001) %MON trAdv_CFL_w_max              =   1.0594434339949E-08
(PID.TID 0000.0001) %MON advcfl_uvel_max              =   8.9274032396834E-03
(PID.TID 0000.0001) %MON advcfl_vvel_max              =   6.6861878730512E-03
(PID.TID 0000.0001) %MON advcfl_wvel_max              =   2.0023496275465E-08
(PID.TID 0000.0001) %MON advcfl_W_hf_max              =   0.0000000000000E+00
(PID.TID 0000.0001) %MON pe_b_mean                    =   1.1879664738413E-06
(PID.TID 0000.0001) %MON ke_max                       =   6.9188125267056E-04
(PID.TID 0000.0001) %MON ke_mean                      =   1.6995651887418E-04
(PID.TID 0000.0001) %MON ke_vol                       =   7.2529629296391E+15
(PID.TID 0000.0001) %MON vort_r_min                   =  -1.3068241553575E-06
(PID.TID 0000.0001) %MON vort_r_max                   =   1.1434438453074E-06
(PID.TID 0000.0001) %MON vort_a_mean                  =   1.0615000000000E-04
(PID.TID 0000.0001) %MON vort_a_sd                    =   3.5711477149267E-06
(PID.TID 0000.0001) %MON vort_p_mean                  =   1.1210870169429E-04
(PID.TID 0000.0001) %MON vort_p_sd                    =   2.1054449631737E-05
(PID.TID 0000.0001) %MON surfExpan_theta_mean         =   7.2188361589028E-20
(PID.TID 0000.0001) %MON surfExpan_salt_mean          =   1.0888330769908E-19
(PID.TID 0000.0001) // =======================================================
(PID.TID 0000.0001) // End MONITOR dynamic field statistics
(PID.TID 0000.0001) // =======================================================
 cg2d: Sum(rhs),rhsMax =   4.13127505817998E-05  4.08014136325322E-03
 cg2d: Sum(rhs),rhsMax =   4.13511356953202E-05  4.08175059039890E-03
 cg2d: Sum(rhs),rhsMax =   4.13894806810481E-05  4.08335970090334E-03
 cg2d: Sum(rhs),rhsMax =   4.14277925724509E-05  4.08496869071528E-03
 cg2d: Sum(rhs),rhsMax =   4.14660911772571E-05  4.08657755988597E-03
 cg2d: Sum(rhs),rhsMax =   4.15043453740084E-05  4.08818630631436E-03
 cg2d: Sum(rhs),rhsMax =   4.15425818929773E-05  4.08979492824819E-03
 cg2d: Sum(rhs),rhsMax =   4.15808064729056E-05  4.09140342276925E-03
 cg2d: Sum(rhs),rhsMax =   4.16189879519492E-05  4.09301179010489E-03
 cg2d: Sum(rhs),rhsMax =   4.16571440575611E-05  4.09462002665502E-03
 cg2d: Sum(rhs),rhsMax =   4.16952774436965E-05  4.09622813275078E-03
 cg2d: Sum(rhs),rhsMax =   4.17333813558579E-05  4.09783610456754E-03
 cg2d: Sum(rhs),rhsMax =   4.17714626438216E-05  4.09944394242937E-03
 cg2d: Sum(rhs),rhsMax =   4.18095076099210E-05  4.10105164277976E-03
 cg2d: Sum(rhs),rhsMax =   4.18475222808564E-05  4.10265920516134E-03
 cg2d: Sum(rhs),rhsMax =   4.18855279445455E-05  4.10426662819065E-03
 cg2d: Sum(rhs),rhsMax =   4.19234783347114E-05  4.10587390956524E-03
 cg2d: Sum(rhs),rhsMax =   4.19614425891234E-05  4.10748104649619E-03
 cg2d: Sum(rhs),rhsMax =   4.19993592789942E-05  4.10908803854511E-03
 cg2d: Sum(rhs),rhsMax =   4.20372387495197E-05  4.11069488406078E-03
 cg2d: Sum(rhs),rhsMax =   4.20751117854510E-05  4.11230158108763E-03
 cg2d: Sum(rhs),rhsMax =   4.21129471044040E-05  4.11390812779096E-03
 cg2d: Sum(rhs),rhsMax =   4.21507565181571E-05  4.11551452302714E-03
 cg2d: Sum(rhs),rhsMax =   4.21885232461689E-05  4.11712076433929E-03
 cg2d: Sum(rhs),rhsMax =   4.22262912295073E-05  4.11872685111766E-03
 cg2d: Sum(rhs),rhsMax =   4.22640191402239E-05  4.12033278030418E-03
 cg2d: Sum(rhs),rhsMax =   4.23017123438629E-05  4.12193855178862E-03
 cg2d: Sum(rhs),rhsMax =   4.23393827685653E-05  4.12354416202524E-03
 cg2d: Sum(rhs),rhsMax =   4.23770185263091E-05  4.12514961219206E-03
 cg2d: Sum(rhs),rhsMax =   4.24146412578695E-05  4.12675489721919E-03
 cg2d: Sum(rhs),rhsMax =   4.24522495272978E-05  4.12836001813728E-03
 cg2d: Sum(rhs),rhsMax =   4.24898102168768E-05  4.12996497093499E-03
 cg2d: Sum(rhs),rhsMax =   4.25273663664421E-05  4.13156975653322E-03
 cg2d: Sum(rhs),rhsMax =   4.25648873328176E-05  4.13317437088747E-03
 cg2d: Sum(rhs),rhsMax =   4.26023916490471E-05  4.13477881470678E-03
 cg2d: Sum(rhs),rhsMax =   4.26398802296237E-05  4.13638308394276E-03
 cg2d: Sum(rhs),rhsMax =   4.26821161817813E-05  4.13798718129226E-03
 cg2d: Sum(rhs),rhsMax =   4.27243321662876E-05  4.13959109828916E-03
 cg2d: Sum(rhs),rhsMax =   4.27665075535140E-05  4.14119483903612E-03
 cg2d: Sum(rhs),rhsMax =   4.28086755066242E-05  4.14279839763939E-03
 cg2d: Sum(rhs),rhsMax =   4.28508069667682E-05  4.14440177645811E-03
 cg2d: Sum(rhs),rhsMax =   4.28929087762193E-05  4.14600497033435E-03
 cg2d: Sum(rhs),rhsMax =   4.29349844567107E-05  4.14760798087841E-03
 cg2d: Sum(rhs),rhsMax =   4.29770341014973E-05  4.14921080342035E-03
 cg2d: Sum(rhs),rhsMax =   4.30190493009141E-05  4.15081343923438E-03
 cg2d: Sum(rhs),rhsMax =   4.30610483007090E-05  4.15241588384946E-03
 cg2d: Sum(rhs),rhsMax =   4.31029943894976E-05  4.15401813843744E-03
 cg2d: Sum(rhs),rhsMax =   4.31449409691244E-05  4.15562019861779E-03
 cg2d: Sum(rhs),rhsMax =   4.31868584302979E-05  4.15722206551147E-03
 cg2d: Sum(rhs),rhsMax =   4.32287431817936E-05  4.15882373477634E-03
 cg2d: Sum(rhs),rhsMax =   4.32706034500449E-05  4.16042520752376E-03
 cg2d: Sum(rhs),rhsMax =   4.33124553146512E-05  4.16202647941533E-03
 cg2d: Sum(rhs),rhsMax =   4.33542489558830E-05  4.16362755157632E-03
 cg2d: Sum(rhs),rhsMax =   4.33960505733604E-05  4.16522841965423E-03
 cg2d: Sum(rhs),rhsMax =   4.34378021198774E-05  4.16682908480760E-03
 cg2d: Sum(rhs),rhsMax =   4.34795538811245E-05  4.16842954265767E-03
 cg2d: Sum(rhs),rhsMax =   4.35212583501034E-05  4.17002979439712E-03
 cg2d: Sum(rhs),rhsMax =   4.35629537270448E-05  4.17162983562099E-03
 cg2d: Sum(rhs),rhsMax =   4.36046018404217E-05  4.17322966756319E-03
 cg2d: Sum(rhs),rhsMax =   4.36462377262116E-05  4.17482928578456E-03
 cg2d: Sum(rhs),rhsMax =   4.36878648717694E-05  4.17642869156050E-03
 cg2d: Sum(rhs),rhsMax =   4.37294444640356E-05  4.17802788042134E-03
 cg2d: Sum(rhs),rhsMax =   4.37709898404356E-05  4.17962685368428E-03
 cg2d: Sum(rhs),rhsMax =   4.38125435379810E-05  4.18122560685189E-03
 cg2d: Sum(rhs),rhsMax =   4.38540458127632E-05  4.18282414126963E-03
 cg2d: Sum(rhs),rhsMax =   4.38955287600149E-05  4.18442245242847E-03
 cg2d: Sum(rhs),rhsMax =   4.39370129523102E-05  4.18602054169289E-03
 cg2d: Sum(rhs),rhsMax =   4.39784534925270E-05  4.18761840454540E-03
 cg2d: Sum(rhs),rhsMax =   4.40198666775988E-05  4.18921604236589E-03
 cg2d: Sum(rhs),rhsMax =   4.40612566530133E-05  4.19081345063561E-03
 cg2d: Sum(rhs),rhsMax =   4.41026372955200E-05  4.19241063074396E-03
 cg2d: Sum(rhs),rhsMax =   4.41440034429346E-05  4.19400757817617E-03
(PID.TID 0000.0001)      cg2d_init_res =   2.26619900617296E-02
(PID.TID 0000.0001)      cg2d_iters(min,last) =      -1     403
(PID.TID 0000.0001)      cg2d_last_res =   9.88691533871871E-08
(PID.TID 0000.0001) // =======================================================
(PID.TID 0000.0001) // Begin MONITOR dynamic field statistics
(PID.TID 0000.0001) // =======================================================
(PID.TID 0000.0001) %MON time_tsnumber                =                  2448
(PID.TID 0000.0001) %MON time_secondsf                =   2.9376000000000E+06
(PID.TID 0000.0001) %MON dynstat_eta_max              =   4.3876102354517E-02
(PID.TID 0000.0001) %MON dynstat_eta_min              =  -8.4239027362099E-02
(PID.TID 0000.0001) %MON dynstat_eta_mean             =  -8.8220357114737E-10
(PID.TID 0000.0001) %MON dynstat_eta_sd               =   3.4990062988291E-02
(PID.TID 0000.0001) %MON dynstat_eta_del2             =   1.9906947762589E-07
(PID.TID 0000.0001) %MON dynstat_uvel_max             =   3.3682765404816E-02
(PID.TID 0000.0001) %MON dynstat_uvel_min             =  -3.8382513280346E-02
(PID.TID 0000.0001) %MON dynstat_uvel_mean            =  -1.5503805865816E-08
(PID.TID 0000.0001) %MON dynstat_uvel_sd              =   1.4577345596698E-02
(PID.TID 0000.0001) %MON dynstat_uvel_del2            =   4.7645632126350E-07
(PID.TID 0000.0001) %MON dynstat_vvel_max             =   2.6591164549467E-02
(PID.TID 0000.0001) %MON dynstat_vvel_min             =  -2.8084837949284E-02
(PID.TID 0000.0001) %MON dynstat_vvel_mean            =  -6.1874454044851E-07
(PID.TID 0000.0001) %MON dynstat_vvel_sd              =   1.2055336538368E-02
(PID.TID 0000.0001) %MON dynstat_vvel_del2            =   4.7220412223292E-07
(PID.TID 0000.0001) %MON dynstat_wvel_max             =   4.2582790773904E-08
(PID.TID 0000.0001) %MON dynstat_wvel_min             =  -3.1301846881397E-08
(PID.TID 0000.0001) %MON dynstat_wvel_mean            =   7.6780556128848E-22
(PID.TID 0000.0001) %MON dynstat_wvel_sd              =   1.5040280709069E-08
(PID.TID 0000.0001) %MON dynstat_wvel_del2            =   1.0061210021499E-13
(PID.TID 0000.0001) %MON dynstat_theta_max            =   2.0000000000000E+01
(PID.TID 0000.0001) %MON dynstat_theta_min            =   2.0000000000000E+01
(PID.TID 0000.0001) %MON dynstat_theta_mean           =   1.9999999999999E+01
(PID.TID 0000.0001) %MON dynstat_theta_sd             =   1.1972645097557E-12
(PID.TID 0000.0001) %MON dynstat_theta_del2           =   0.0000000000000E+00
(PID.TID 0000.0001) %MON dynstat_salt_max             =   3.0000000000000E+01
(PID.TID 0000.0001) %MON dynstat_salt_min             =   3.0000000000000E+01
(PID.TID 0000.0001) %MON dynstat_salt_mean            =   2.9999999999998E+01
(PID.TID 0000.0001) %MON dynstat_salt_sd              =   2.1529444893531E-12
(PID.TID 0000.0001) %MON dynstat_salt_del2            =   0.0000000000000E+00
(PID.TID 0000.0001) %MON trAdv_CFL_u_max              =   9.2078292620664E-03
(PID.TID 0000.0001) %MON trAdv_CFL_v_max              =   6.7390731715225E-03
(PID.TID 0000.0001) %MON trAdv_CFL_w_max              =   1.0817767748943E-08
(PID.TID 0000.0001) %MON advcfl_uvel_max              =   9.2118031872831E-03
(PID.TID 0000.0001) %MON advcfl_vvel_max              =   6.7403611078282E-03
(PID.TID 0000.0001) %MON advcfl_wvel_max              =   2.0439739571474E-08
(PID.TID 0000.0001) %MON advcfl_W_hf_max              =   0.0000000000000E+00
(PID.TID 0000.0001) %MON pe_b_mean                    =   1.2526312020036E-06
(PID.TID 0000.0001) %MON ke_max                       =   7.3663739081618E-04
(PID.TID 0000.0001) %MON ke_mean                      =   1.7810970721190E-04
(PID.TID 0000.0001) %MON ke_vol                       =   7.2529629296391E+15
(PID.TID 0000.0001) %MON vort_r_min                   =  -1.3451162527345E-06
(PID.TID 0000.0001) %MON vort_r_max                   =   1.2214472104487E-06
(PID.TID 0000.0001) %MON vort_a_mean                  =   1.0615000000000E-04
(PID.TID 0000.0001) %MON vort_a_sd                    =   3.5714697572194E-06
(PID.TID 0000.0001) %MON vort_p_mean                  =   1.1210870169429E-04
(PID.TID 0000.0001) %MON vort_p_sd                    =   2.1054410248887E-05
(PID.TID 0000.0001) %MON surfExpan_theta_mean         =   1.5174279236068E-20
(PID.TID 0000.0001) %MON surfExpan_salt_mean          =   2.2949901319393E-20
(PID.TID 0000.0001) // =======================================================
(PID.TID 0000.0001) // End MONITOR dynamic field statistics
(PID.TID 0000.0001) // =======================================================
 cg2d: Sum(rhs),rhsMax =   4.41853282162588E-05  4.19560429431958E-03
 cg2d: Sum(rhs),rhsMax =   4.42266483238279E-05  4.19720077467802E-03
 cg2d: Sum(rhs),rhsMax =   4.42679449616950E-05  4.19879702063012E-03
 cg2d: Sum(rhs),rhsMax =   4.43092234856455E-05  4.20039302769392E-03
 cg2d: Sum(rhs),rhsMax =   4.43504666210060E-05  4.20198879724646E-03
 cg2d: Sum(rhs),rhsMax =   4.43917034957820E-05  4.20358432482149E-03
 cg2d: Sum(rhs),rhsMax =   4.44329246208682E-05  4.20517961178559E-03
 cg2d: Sum(rhs),rhsMax =   4.44741046433631E-05  4.20677465369374E-03
 cg2d: Sum(rhs),rhsMax =   4.45152787540231E-05  4.20836945190286E-03
 cg2d: Sum(rhs),rhsMax =   4.45564138960228E-05  4.20996400198445E-03
 cg2d: Sum(rhs),rhsMax =   4.45975620251373E-05  4.21155830529231E-03
 cg2d: Sum(rhs),rhsMax =   4.46386665175122E-05  4.21315235741094E-03
 cg2d: Sum(rhs),rhsMax =   4.46797549892063E-05  4.21474615969077E-03
 cg2d: Sum(rhs),rhsMax =   4.47208405560972E-05  4.21633970773094E-03
 cg2d: Sum(rhs),rhsMax =   4.47619184318461E-05  4.21793300287763E-03
 cg2d: Sum(rhs),rhsMax =   4.48029328599907E-05  4.21952604074290E-03
 cg2d: Sum(rhs),rhsMax =   4.48439762681515E-05  4.22111882267031E-03
 cg2d: Sum(rhs),rhsMax =   4.48849756393313E-05  4.22271134428179E-03
 cg2d: Sum(rhs),rhsMax =   4.49259583067733E-05  4.22430360692738E-03
 cg2d: Sum(rhs),rhsMax =   4.49669234409891E-05  4.22589560623302E-03
 cg2d: Sum(rhs),rhsMax =   4.50078712027494E-05  4.22748734355235E-03
 cg2d: Sum(rhs),rhsMax =   4.50488135627322E-05  4.22907881451544E-03
 cg2d: Sum(rhs),rhsMax =   4.50897262810053E-05  4.23067002048347E-03
 cg2d: Sum(rhs),rhsMax =   4.51306105384909E-05  4.23226095709290E-03
 cg2d: Sum(rhs),rhsMax =   4.51714935871361E-05  4.23385162571005E-03
 cg2d: Sum(rhs),rhsMax =   4.52123269384383E-05  4.23544202197124E-03
 cg2d: Sum(rhs),rhsMax =   4.52531865468208E-05  4.23703214725424E-03
 cg2d: Sum(rhs),rhsMax =   4.52940248248644E-05  4.23862199719787E-03
 cg2d: Sum(rhs),rhsMax =   4.53348262969308E-05  4.24021157318563E-03
 cg2d: Sum(rhs),rhsMax =   4.53755934463553E-05  4.24180087086039E-03
 cg2d: Sum(rhs),rhsMax =   4.54163749611320E-05  4.24338989161266E-03
 cg2d: Sum(rhs),rhsMax =   4.54571220943572E-05  4.24497863108801E-03
 cg2d: Sum(rhs),rhsMax =   4.54978570977949E-05  4.24656709068853E-03
 cg2d: Sum(rhs),rhsMax =   4.55385673129504E-05  4.24815526605757E-03
 cg2d: Sum(rhs),rhsMax =   4.55792804038438E-05  4.24974315860549E-03
 cg2d: Sum(rhs),rhsMax =   4.56199414412429E-05  4.25133357341453E-03
 cg2d: Sum(rhs),rhsMax =   4.56605691120898E-05  4.25292503952119E-03
 cg2d: Sum(rhs),rhsMax =   4.57011695093371E-05  4.25451620921609E-03
 cg2d: Sum(rhs),rhsMax =   4.57417515420363E-05  4.25610708116101E-03
 cg2d: Sum(rhs),rhsMax =   4.57823271066914E-05  4.25769765377752E-03
 cg2d: Sum(rhs),rhsMax =   4.58228818789614E-05  4.25928792570465E-03
 cg2d: Sum(rhs),rhsMax =   4.58634123995790E-05  4.26087789539747E-03
 cg2d: Sum(rhs),rhsMax =   4.59039466870837E-05  4.26246756147746E-03
 cg2d: Sum(rhs),rhsMax =   4.59444616405596E-05  4.26405692242790E-03
 cg2d: Sum(rhs),rhsMax =   4.59849412845800E-05  4.26564597684637E-03
 cg2d: Sum(rhs),rhsMax =   4.60254285519408E-05  4.26723472325266E-03
 cg2d: Sum(rhs),rhsMax =   4.60658815077653E-05  4.26882316022308E-03
 cg2d: Sum(rhs),rhsMax =   4.61063246860291E-05  4.27041128630634E-03
 cg2d: Sum(rhs),rhsMax =   4.61467555652258E-05  4.27199910006013E-03
 cg2d: Sum(rhs),rhsMax =   4.61871685442298E-05  4.27358660006669E-03
 cg2d: Sum(rhs),rhsMax =   4.62275642820263E-05  4.27517378485783E-03
 cg2d: Sum(rhs),rhsMax =   4.62679415304756E-05  4.27676065305282E-03
 cg2d: Sum(rhs),rhsMax =   4.63082946596783E-05  4.27834720316151E-03
 cg2d: Sum(rhs),rhsMax =   4.63486592222405E-05  4.27993343383019E-03
 cg2d: Sum(rhs),rhsMax =   4.63890098331655E-05  4.28151934355378E-03
 cg2d: Sum(rhs),rhsMax =   4.64293332020464E-05  4.28310493100779E-03
 cg2d: Sum(rhs),rhsMax =   4.64696289480147E-05  4.28469019466721E-03
 cg2d: Sum(rhs),rhsMax =   4.65099238301050E-05  4.28627513323815E-03
 cg2d: Sum(rhs),rhsMax =   4.65501971573944E-05  4.28785974517681E-03
 cg2d: Sum(rhs),rhsMax =   4.65904524225170E-05  4.28944402921889E-03
 cg2d: Sum(rhs),rhsMax =   4.66307071792780E-05  4.29102798380063E-03
 cg2d: Sum(rhs),rhsMax =   4.66709411628711E-05  4.29261160769117E-03
 cg2d: Sum(rhs),rhsMax =   4.67111719538206E-05  4.29419489930576E-03
 cg2d: Sum(rhs),rhsMax =   4.67513718850924E-05  4.29577785744133E-03
 cg2d: Sum(rhs),rhsMax =   4.67915609822147E-05  4.29736048049770E-03
 cg2d: Sum(rhs),rhsMax =   4.68317338483018E-05  4.29894276729927E-03
 cg2d: Sum(rhs),rhsMax =   4.68718783818265E-05  4.30052471623037E-03
 cg2d: Sum(rhs),rhsMax =   4.69120273408606E-05  4.30210632614305E-03
 cg2d: Sum(rhs),rhsMax =   4.69521737657820E-05  4.30368759540138E-03
 cg2d: Sum(rhs),rhsMax =   4.69922891599426E-05  4.30526852288944E-03
 cg2d: Sum(rhs),rhsMax =   4.70323651027798E-05  4.30684910695350E-03
 cg2d: Sum(rhs),rhsMax =   4.70724486352561E-05  4.30842934650542E-03
(PID.TID 0000.0001)      cg2d_init_res =   2.21118346309141E-02
(PID.TID 0000.0001)      cg2d_iters(min,last) =      -1     403
(PID.TID 0000.0001)      cg2d_last_res =   9.98609517720761E-08
(PID.TID 0000.0001) // =======================================================
(PID.TID 0000.0001) // Begin MONITOR dynamic field statistics
(PID.TID 0000.0001) // =======================================================
(PID.TID 0000.0001) %MON time_tsnumber                =                  2520
(PID.TID 0000.0001) %MON time_secondsf                =   3.0240000000000E+06
(PID.TID 0000.0001) %MON dynstat_eta_max              =   4.6001926989358E-02
(PID.TID 0000.0001) %MON dynstat_eta_min              =  -8.6239361854881E-02
(PID.TID 0000.0001) %MON dynstat_eta_mean             =  -9.6629697736338E-10
(PID.TID 0000.0001) %MON dynstat_eta_sd               =   3.5919664591425E-02
(PID.TID 0000.0001) %MON dynstat_eta_del2             =   2.0406969791997E-07
(PID.TID 0000.0001) %MON dynstat_uvel_max             =   3.4096257508958E-02
(PID.TID 0000.0001) %MON dynstat_uvel_min             =  -3.9581719364876E-02
(PID.TID 0000.0001) %MON dynstat_uvel_mean            =  -6.7503598996847E-08
(PID.TID 0000.0001) %MON dynstat_uvel_sd              =   1.4975691447959E-02
(PID.TID 0000.0001) %MON dynstat_uvel_del2            =   4.8579971595310E-07
(PID.TID 0000.0001) %MON dynstat_vvel_max             =   2.7067798428857E-02
(PID.TID 0000.0001) %MON dynstat_vvel_min             =  -2.8285372248914E-02
(PID.TID 0000.0001) %MON dynstat_vvel_mean            =  -5.9559855594094E-07
(PID.TID 0000.0001) %MON dynstat_vvel_sd              =   1.2280780394411E-02
(PID.TID 0000.0001) %MON dynstat_vvel_del2            =   4.9596739098949E-07
(PID.TID 0000.0001) %MON dynstat_wvel_max             =   4.2968545884214E-08
(PID.TID 0000.0001) %MON dynstat_wvel_min             =  -2.9072768366896E-08
(PID.TID 0000.0001) %MON dynstat_wvel_mean            =  -2.2112448528691E-21
(PID.TID 0000.0001) %MON dynstat_wvel_sd              =   1.4819265438535E-08
(PID.TID 0000.0001) %MON dynstat_wvel_del2            =   1.0050815999282E-13
(PID.TID 0000.0001) %MON dynstat_theta_max            =   2.0000000000000E+01
(PID.TID 0000.0001) %MON dynstat_theta_min            =   2.0000000000000E+01
(PID.TID 0000.0001) %MON dynstat_theta_mean           =   1.9999999999999E+01
(PID.TID 0000.0001) %MON dynstat_theta_sd             =   1.1972645097557E-12
(PID.TID 0000.0001) %MON dynstat_theta_del2           =   0.0000000000000E+00
(PID.TID 0000.0001) %MON dynstat_salt_max             =   3.0000000000000E+01
(PID.TID 0000.0001) %MON dynstat_salt_min             =   3.0000000000000E+01
(PID.TID 0000.0001) %MON dynstat_salt_mean            =   2.9999999999998E+01
(PID.TID 0000.0001) %MON dynstat_salt_sd              =   2.1529444893531E-12
(PID.TID 0000.0001) %MON dynstat_salt_del2            =   0.0000000000000E+00
(PID.TID 0000.0001) %MON trAdv_CFL_u_max              =   9.4955919054508E-03
(PID.TID 0000.0001) %MON trAdv_CFL_v_max              =   6.7871687798255E-03
(PID.TID 0000.0001) %MON trAdv_CFL_w_max              =   1.0915102856312E-08
(PID.TID 0000.0001) %MON advcfl_uvel_max              =   9.4996126475702E-03
(PID.TID 0000.0001) %MON advcfl_vvel_max              =   6.7884893397393E-03
(PID.TID 0000.0001) %MON advcfl_wvel_max              =   2.0624902024423E-08
(PID.TID 0000.0001) %MON advcfl_W_hf_max              =   0.0000000000000E+00
(PID.TID 0000.0001) %MON pe_b_mean                    =   1.3200741363786E-06
(PID.TID 0000.0001) %MON ke_max                       =   7.8341321311862E-04
(PID.TID 0000.0001) %MON ke_mean                      =   1.8670024195234E-04
(PID.TID 0000.0001) %MON ke_vol                       =   7.2529629296391E+15
(PID.TID 0000.0001) %MON vort_r_min                   =  -1.3832896161979E-06
(PID.TID 0000.0001) %MON vort_r_max                   =   1.3093379348585E-06
(PID.TID 0000.0001) %MON vort_a_mean                  =   1.0615000000000E-04
(PID.TID 0000.0001) %MON vort_a_sd                    =   3.5718164142810E-06
(PID.TID 0000.0001) %MON vort_p_mean                  =   1.1210870169429E-04
(PID.TID 0000.0001) %MON vort_p_sd                    =   2.1054393086593E-05
(PID.TID 0000.0001) %MON surfExpan_theta_mean         =  -4.2601501090187E-20
(PID.TID 0000.0001) %MON surfExpan_salt_mean          =  -6.3529795550168E-20
(PID.TID 0000.0001) // =======================================================
(PID.TID 0000.0001) // End MONITOR dynamic field statistics
(PID.TID 0000.0001) // =======================================================
 cg2d: Sum(rhs),rhsMax =   4.71125129035115E-05  4.31000923987664E-03
 cg2d: Sum(rhs),rhsMax =   4.71525619531806E-05  4.31158878600153E-03
 cg2d: Sum(rhs),rhsMax =   4.71925752261737E-05  4.31316798319765E-03
 cg2d: Sum(rhs),rhsMax =   4.72326004581974E-05  4.31474683042988E-03
 cg2d: Sum(rhs),rhsMax =   4.72726085188270E-05  4.31632532599876E-03
 cg2d: Sum(rhs),rhsMax =   4.73077698844482E-05  4.31790346689736E-03
 cg2d: Sum(rhs),rhsMax =   4.73429025152350E-05  4.31948125534987E-03
 cg2d: Sum(rhs),rhsMax =   4.73780260284336E-05  4.32105868853110E-03
 cg2d: Sum(rhs),rhsMax =   4.74131294230973E-05  4.32263576442407E-03
 cg2d: Sum(rhs),rhsMax =   4.74482304228777E-05  4.32421248240301E-03
 cg2d: Sum(rhs),rhsMax =   4.74832883225191E-05  4.32578884056640E-03
 cg2d: Sum(rhs),rhsMax =   4.75183734235836E-05  4.32736483807706E-03
 cg2d: Sum(rhs),rhsMax =   4.75534064565274E-05  4.32894047323388E-03
 cg2d: Sum(rhs),rhsMax =   4.75884246119228E-05  4.33051574465980E-03
 cg2d: Sum(rhs),rhsMax =   4.76234598159463E-05  4.33209065112040E-03
 cg2d: Sum(rhs),rhsMax =   4.76584827650540E-05  4.33366519138771E-03
 cg2d: Sum(rhs),rhsMax =   4.76934568790352E-05  4.33523936389139E-03
 cg2d: Sum(rhs),rhsMax =   4.77284310341627E-05  4.33681316751846E-03
 cg2d: Sum(rhs),rhsMax =   4.77633930337880E-05  4.33838660105027E-03
 cg2d: Sum(rhs),rhsMax =   4.77982908906583E-05  4.33995966317102E-03
 cg2d: Sum(rhs),rhsMax =   4.78332166258468E-05  4.34153235206793E-03
 cg2d: Sum(rhs),rhsMax =   4.78681338451402E-05  4.34310466699713E-03
 cg2d: Sum(rhs),rhsMax =   4.79030103976972E-05  4.34467660623210E-03
 cg2d: Sum(rhs),rhsMax =   4.79379013259879E-05  4.34624816859613E-03
 cg2d: Sum(rhs),rhsMax =   4.79727211259379E-05  4.34781935271545E-03
 cg2d: Sum(rhs),rhsMax =   4.80075605590337E-05  4.34939015745962E-03
 cg2d: Sum(rhs),rhsMax =   4.80423872947560E-05  4.35096058177384E-03
 cg2d: Sum(rhs),rhsMax =   4.80771981350311E-05  4.35253062393053E-03
 cg2d: Sum(rhs),rhsMax =   4.81119819752997E-05  4.35410028311285E-03
 cg2d: Sum(rhs),rhsMax =   4.81467504445080E-05  4.35566955775325E-03
 cg2d: Sum(rhs),rhsMax =   4.81815236468073E-05  4.35723844614348E-03
 cg2d: Sum(rhs),rhsMax =   4.82162582912402E-05  4.35880694726155E-03
 cg2d: Sum(rhs),rhsMax =   4.82509801634492E-05  4.36037506024297E-03
 cg2d: Sum(rhs),rhsMax =   4.82856725888105E-05  4.36194278336401E-03
 cg2d: Sum(rhs),rhsMax =   4.83203933454579E-05  4.36351011542690E-03
 cg2d: Sum(rhs),rhsMax =   4.83550482145490E-05  4.36507705507861E-03
 cg2d: Sum(rhs),rhsMax =   4.83897136253197E-05  4.36664360151377E-03
 cg2d: Sum(rhs),rhsMax =   4.84243342071290E-05  4.36820975304620E-03
 cg2d: Sum(rhs),rhsMax =   4.84589511217303E-05  4.36977550840736E-03
 cg2d: Sum(rhs),rhsMax =   4.84935537476265E-05  4.37134086614440E-03
 cg2d: Sum(rhs),rhsMax =   4.85281404569026E-05  4.37290582587809E-03
 cg2d: Sum(rhs),rhsMax =   4.85627069658498E-05  4.37447038548850E-03
 cg2d: Sum(rhs),rhsMax =   4.85972319080250E-05  4.37603454429509E-03
 cg2d: Sum(rhs),rhsMax =   4.86317644032377E-05  4.37759830034808E-03
 cg2d: Sum(rhs),rhsMax =   4.86662626571254E-05  4.37916165323246E-03
 cg2d: Sum(rhs),rhsMax =   4.87007687779055E-05  4.38072460095002E-03
 cg2d: Sum(rhs),rhsMax =   4.87352430073090E-05  4.38228714276443E-03
 cg2d: Sum(rhs),rhsMax =   4.87696582266066E-05  4.38384927693842E-03
 cg2d: Sum(rhs),rhsMax =   4.88041106503890E-05  4.38541100289048E-03
 cg2d: Sum(rhs),rhsMax =   4.88385166729803E-05  4.38697231860107E-03
 cg2d: Sum(rhs),rhsMax =   4.88729061822249E-05  4.38853322398617E-03
 cg2d: Sum(rhs),rhsMax =   4.89072671277474E-05  4.39009371695839E-03
 cg2d: Sum(rhs),rhsMax =   4.89416446314557E-05  4.39165379634318E-03
 cg2d: Sum(rhs),rhsMax =   4.89759704550138E-05  4.39321346064010E-03
 cg2d: Sum(rhs),rhsMax =   4.90102905128676E-05  4.39477270970687E-03
 cg2d: Sum(rhs),rhsMax =   4.90445884634818E-05  4.39633154131823E-03
 cg2d: Sum(rhs),rhsMax =   4.90788381993039E-05  4.39788995486006E-03
 cg2d: Sum(rhs),rhsMax =   4.91130899312720E-05  4.39944794843632E-03
 cg2d: Sum(rhs),rhsMax =   4.91473237139630E-05  4.40100552171606E-03
 cg2d: Sum(rhs),rhsMax =   4.91815276946763E-05  4.40256267249009E-03
 cg2d: Sum(rhs),rhsMax =   4.92157169305505E-05  4.40411940094535E-03
 cg2d: Sum(rhs),rhsMax =   4.92498761649456E-05  4.40567570479896E-03
 cg2d: Sum(rhs),rhsMax =   4.92840370967720E-05  4.40723158318721E-03
 cg2d: Sum(rhs),rhsMax =   4.93181784603238E-05  4.40878703473868E-03
 cg2d: Sum(rhs),rhsMax =   4.93522949116818E-05  4.41034205832483E-03
 cg2d: Sum(rhs),rhsMax =   4.93863928912887E-05  4.41189665251121E-03
 cg2d: Sum(rhs),rhsMax =   4.94204607003469E-05  4.41345081678937E-03
 cg2d: Sum(rhs),rhsMax =   4.94544854221105E-05  4.41500454915823E-03
 cg2d: Sum(rhs),rhsMax =   4.94885298710146E-05  4.41655784954106E-03
 cg2d: Sum(rhs),rhsMax =   4.95225217089193E-05  4.41811071557754E-03
 cg2d: Sum(rhs),rhsMax =   4.95565099229321E-05  4.41966314723258E-03
 cg2d: Sum(rhs),rhsMax =   4.95904617639387E-05  4.42121514213167E-03
(PID.TID 0000.0001)      cg2d_init_res =   2.16670387607250E-02
(PID.TID 0000.0001)      cg2d_iters(min,last) =      -1     404
(PID.TID 0000.0001)      cg2d_last_res =   9.87642373842087E-08
(PID.TID 0000.0001) // =======================================================
(PID.TID 0000.0001) // Begin MONITOR dynamic field statistics
(PID.TID 0000.0001) // =======================================================
(PID.TID 0000.0001) %MON time_tsnumber                =                  2592
(PID.TID 0000.0001) %MON time_secondsf                =   3.1104000000000E+06
(PID.TID 0000.0001) %MON dynstat_eta_max              =   4.8119955754922E-02
(PID.TID 0000.0001) %MON dynstat_eta_min              =  -8.8280936859998E-02
(PID.TID 0000.0001) %MON dynstat_eta_mean             =  -1.0444447663152E-09
(PID.TID 0000.0001) %MON dynstat_eta_sd               =   3.6857497537195E-02
(PID.TID 0000.0001) %MON dynstat_eta_del2             =   2.0933663633288E-07
(PID.TID 0000.0001) %MON dynstat_uvel_max             =   3.4416049358819E-02
(PID.TID 0000.0001) %MON dynstat_uvel_min             =  -4.0791384715358E-02
(PID.TID 0000.0001) %MON dynstat_uvel_mean            =  -1.0950352036493E-07
(PID.TID 0000.0001) %MON dynstat_uvel_sd              =   1.5359840949298E-02
(PID.TID 0000.0001) %MON dynstat_uvel_del2            =   4.9350915778496E-07
(PID.TID 0000.0001) %MON dynstat_vvel_max             =   2.7571046673847E-02
(PID.TID 0000.0001) %MON dynstat_vvel_min             =  -2.8475867443567E-02
(PID.TID 0000.0001) %MON dynstat_vvel_mean            =  -5.6405435026970E-07
(PID.TID 0000.0001) %MON dynstat_vvel_sd              =   1.2540054343569E-02
(PID.TID 0000.0001) %MON dynstat_vvel_del2            =   5.2227006337521E-07
(PID.TID 0000.0001) %MON dynstat_wvel_max             =   4.2875138517411E-08
(PID.TID 0000.0001) %MON dynstat_wvel_min             =  -2.7852291380987E-08
(PID.TID 0000.0001) %MON dynstat_wvel_mean            =  -1.5129431889926E-21
(PID.TID 0000.0001) %MON dynstat_wvel_sd              =   1.4557740761750E-08
(PID.TID 0000.0001) %MON dynstat_wvel_del2            =   1.0088405487451E-13
(PID.TID 0000.0001) %MON dynstat_theta_max            =   2.0000000000000E+01
(PID.TID 0000.0001) %MON dynstat_theta_min            =   2.0000000000000E+01
(PID.TID 0000.0001) %MON dynstat_theta_mean           =   1.9999999999999E+01
(PID.TID 0000.0001) %MON dynstat_theta_sd             =   1.1972645097557E-12
(PID.TID 0000.0001) %MON dynstat_theta_del2           =   0.0000000000000E+00
(PID.TID 0000.0001) %MON dynstat_salt_max             =   3.0000000000000E+01
(PID.TID 0000.0001) %MON dynstat_salt_min             =   3.0000000000000E+01
(PID.TID 0000.0001) %MON dynstat_salt_mean            =   2.9999999999998E+01
(PID.TID 0000.0001) %MON dynstat_salt_sd              =   2.1529444893531E-12
(PID.TID 0000.0001) %MON dynstat_salt_del2            =   0.0000000000000E+00
(PID.TID 0000.0001) %MON trAdv_CFL_u_max              =   9.7858907275038E-03
(PID.TID 0000.0001) %MON trAdv_CFL_v_max              =   6.8329045150000E-03
(PID.TID 0000.0001) %MON trAdv_CFL_w_max              =   1.0891534057581E-08
(PID.TID 0000.0001) %MON advcfl_uvel_max              =   9.7899323316858E-03
(PID.TID 0000.0001) %MON advcfl_vvel_max              =   6.8342081864561E-03
(PID.TID 0000.0001) %MON advcfl_wvel_max              =   2.0580066488357E-08
(PID.TID 0000.0001) %MON advcfl_W_hf_max              =   0.0000000000000E+00
(PID.TID 0000.0001) %MON pe_b_mean                    =   1.3899061200347E-06
(PID.TID 0000.0001) %MON ke_max                       =   8.3204762891139E-04
(PID.TID 0000.0001) %MON ke_mean                      =   1.9570391745016E-04
(PID.TID 0000.0001) %MON ke_vol                       =   7.2529629296391E+15
(PID.TID 0000.0001) %MON vort_r_min                   =  -1.4211652861947E-06
(PID.TID 0000.0001) %MON vort_r_max                   =   1.4046643206474E-06
(PID.TID 0000.0001) %MON vort_a_mean                  =   1.0615000000000E-04
(PID.TID 0000.0001) %MON vort_a_sd                    =   3.5721854447707E-06
(PID.TID 0000.0001) %MON vort_p_mean                  =   1.1210870169429E-04
(PID.TID 0000.0001) %MON vort_p_sd                    =   2.1054400839799E-05
(PID.TID 0000.0001) %MON surfExpan_theta_mean         =  -2.9601400758613E-20
(PID.TID 0000.0001) %MON surfExpan_salt_mean          =  -4.3828388161351E-20
(PID.TID 0000.0001) // =======================================================
(PID.TID 0000.0001) // End MONITOR dynamic field statistics
(PID.TID 0000.0001) // =======================================================
 cg2d: Sum(rhs),rhsMax =   4.96243947987834E-05  4.42276670050915E-03
 cg2d: Sum(rhs),rhsMax =   4.96583150331820E-05  4.42431782002996E-03
 cg2d: Sum(rhs),rhsMax =   4.96922043235907E-05  4.42586850019254E-03
 cg2d: Sum(rhs),rhsMax =   4.97260663851556E-05  4.42741873921728E-03
 cg2d: Sum(rhs),rhsMax =   4.97599458138529E-05  4.42896853650660E-03
 cg2d: Sum(rhs),rhsMax =   4.97937262449607E-05  4.43051789027364E-03
 cg2d: Sum(rhs),rhsMax =   4.98275225480275E-05  4.43206680031903E-03
 cg2d: Sum(rhs),rhsMax =   4.98612958066249E-05  4.43361526450671E-03
 cg2d: Sum(rhs),rhsMax =   4.98950481390074E-05  4.43516328258371E-03
 cg2d: Sum(rhs),rhsMax =   4.99287797086603E-05  4.43671085283917E-03
 cg2d: Sum(rhs),rhsMax =   4.99624568703612E-05  4.43825797450579E-03
 cg2d: Sum(rhs),rhsMax =   4.99961463835356E-05  4.43980464616206E-03
 cg2d: Sum(rhs),rhsMax =   5.00297936968327E-05  4.44135086719519E-03
 cg2d: Sum(rhs),rhsMax =   5.00634242856174E-05  4.44289663544932E-03
 cg2d: Sum(rhs),rhsMax =   5.00970339452991E-05  4.44444195098684E-03
 cg2d: Sum(rhs),rhsMax =   5.01306174625262E-05  4.44598681152708E-03
 cg2d: Sum(rhs),rhsMax =   5.01641673926528E-05  4.44753121707662E-03
 cg2d: Sum(rhs),rhsMax =   5.01976890218856E-05  4.44907516544586E-03
 cg2d: Sum(rhs),rhsMax =   5.02311808632488E-05  4.45061865647222E-03
 cg2d: Sum(rhs),rhsMax =   5.02646745055837E-05  4.45216168833931E-03
 cg2d: Sum(rhs),rhsMax =   5.02981030989207E-05  4.45370426050418E-03
 cg2d: Sum(rhs),rhsMax =   5.03315376372015E-05  4.45524637173544E-03
 cg2d: Sum(rhs),rhsMax =   5.03649059579261E-05  4.45678802078407E-03
 cg2d: Sum(rhs),rhsMax =   5.03982756760463E-05  4.45832920616243E-03
 cg2d: Sum(rhs),rhsMax =   5.04316254776793E-05  4.45986992751315E-03
 cg2d: Sum(rhs),rhsMax =   5.04649573592275E-05  4.46141018311150E-03
 cg2d: Sum(rhs),rhsMax =   5.04982412296434E-05  4.46294997261159E-03
 cg2d: Sum(rhs),rhsMax =   5.05315157016237E-05  4.46448929409383E-03
 cg2d: Sum(rhs),rhsMax =   5.05647513694262E-05  4.46602814727190E-03
 cg2d: Sum(rhs),rhsMax =   5.05979358834657E-05  4.46756653022616E-03
 cg2d: Sum(rhs),rhsMax =   5.06311039901509E-05  4.46910444293552E-03
 cg2d: Sum(rhs),rhsMax =   5.06642613979894E-05  4.47064188320067E-03
 cg2d: Sum(rhs),rhsMax =   5.06973755014313E-05  4.47217885074415E-03
 cg2d: Sum(rhs),rhsMax =   5.07304789889662E-05  4.47371534396823E-03
 cg2d: Sum(rhs),rhsMax =   5.07635457290389E-05  4.47525136199348E-03
 cg2d: Sum(rhs),rhsMax =   5.07965999109708E-05  4.47678690431896E-03
 cg2d: Sum(rhs),rhsMax =   5.08296072211458E-05  4.47832196973608E-03
 cg2d: Sum(rhs),rhsMax =   5.08626162169850E-05  4.47985655623496E-03
 cg2d: Sum(rhs),rhsMax =   5.08955659673221E-05  4.48139066374067E-03
 cg2d: Sum(rhs),rhsMax =   5.09241696164562E-05  4.48292429206259E-03
 cg2d: Sum(rhs),rhsMax =   5.09527480643457E-05  4.48445743766308E-03
 cg2d: Sum(rhs),rhsMax =   5.09813201416730E-05  4.48599010034153E-03
 cg2d: Sum(rhs),rhsMax =   5.10098292133762E-05  4.48752228001451E-03
 cg2d: Sum(rhs),rhsMax =   5.10383513392608E-05  4.48905397462686E-03
 cg2d: Sum(rhs),rhsMax =   5.10668248940647E-05  4.49058518413357E-03
 cg2d: Sum(rhs),rhsMax =   5.10952547925149E-05  4.49211846856003E-03
 cg2d: Sum(rhs),rhsMax =   5.11236254797662E-05  4.49365152614360E-03
 cg2d: Sum(rhs),rhsMax =   5.11519870102870E-05  4.49518408630054E-03
 cg2d: Sum(rhs),rhsMax =   5.11803134598593E-05  4.49671614984536E-03
 cg2d: Sum(rhs),rhsMax =   5.12086232673779E-05  4.49824771392432E-03
 cg2d: Sum(rhs),rhsMax =   5.12368783556088E-05  4.49977877938840E-03
 cg2d: Sum(rhs),rhsMax =   5.12651290294464E-05  4.50130934335146E-03
 cg2d: Sum(rhs),rhsMax =   5.12933441568883E-05  4.50283940669708E-03
 cg2d: Sum(rhs),rhsMax =   5.13215375204244E-05  4.50436896651775E-03
 cg2d: Sum(rhs),rhsMax =   5.13496948887446E-05  4.50589802370766E-03
 cg2d: Sum(rhs),rhsMax =   5.13778312868957E-05  4.50742657537177E-03
 cg2d: Sum(rhs),rhsMax =   5.14059381333059E-05  4.50895462239359E-03
 cg2d: Sum(rhs),rhsMax =   5.14340091812234E-05  4.51048216191784E-03
 cg2d: Sum(rhs),rhsMax =   5.14620485857452E-05  4.51200919478587E-03
 cg2d: Sum(rhs),rhsMax =   5.14900368505855E-05  4.51353571821673E-03
 cg2d: Sum(rhs),rhsMax =   5.15180359858770E-05  4.51506173297152E-03
 cg2d: Sum(rhs),rhsMax =   5.15459731200347E-05  4.51658723637457E-03
 cg2d: Sum(rhs),rhsMax =   5.15738992056432E-05  4.51811222908316E-03
 cg2d: Sum(rhs),rhsMax =   5.16017695600061E-05  4.51963670855152E-03
 cg2d: Sum(rhs),rhsMax =   5.16296337060825E-05  4.52116067530119E-03
 cg2d: Sum(rhs),rhsMax =   5.16574619451003E-05  4.52268412694912E-03
 cg2d: Sum(rhs),rhsMax =   5.16852527010499E-05  4.52420706385045E-03
 cg2d: Sum(rhs),rhsMax =   5.17130219738161E-05  4.52572948381849E-03
 cg2d: Sum(rhs),rhsMax =   5.17407712961352E-05  4.52725138701209E-03
 cg2d: Sum(rhs),rhsMax =   5.17684769009976E-05  4.52877277145905E-03
 cg2d: Sum(rhs),rhsMax =   5.17961504275903E-05  4.53029363711032E-03
 cg2d: Sum(rhs),rhsMax =   5.18237742819540E-05  4.53181398221746E-03
(PID.TID 0000.0001)      cg2d_init_res =   2.12960291730190E-02
(PID.TID 0000.0001)      cg2d_iters(min,last) =      -1     405
(PID.TID 0000.0001)      cg2d_last_res =   9.75477003324828E-08
(PID.TID 0000.0001) // =======================================================
(PID.TID 0000.0001) // Begin MONITOR dynamic field statistics
(PID.TID 0000.0001) // =======================================================
(PID.TID 0000.0001) %MON time_tsnumber                =                  2664
(PID.TID 0000.0001) %MON time_secondsf                =   3.1968000000000E+06
(PID.TID 0000.0001) %MON dynstat_eta_max              =   5.0189914290186E-02
(PID.TID 0000.0001) %MON dynstat_eta_min              =  -9.0349439303915E-02
(PID.TID 0000.0001) %MON dynstat_eta_mean             =  -1.1185979611804E-09
(PID.TID 0000.0001) %MON dynstat_eta_sd               =   3.7797170265416E-02
(PID.TID 0000.0001) %MON dynstat_eta_del2             =   2.1482771547908E-07
(PID.TID 0000.0001) %MON dynstat_uvel_max             =   3.4641407621066E-02
(PID.TID 0000.0001) %MON dynstat_uvel_min             =  -4.2009242943054E-02
(PID.TID 0000.0001) %MON dynstat_uvel_mean            =  -1.4044770412821E-07
(PID.TID 0000.0001) %MON dynstat_uvel_sd              =   1.5727370903508E-02
(PID.TID 0000.0001) %MON dynstat_uvel_del2            =   4.9977762180984E-07
(PID.TID 0000.0001) %MON dynstat_vvel_max             =   2.8101254729629E-02
(PID.TID 0000.0001) %MON dynstat_vvel_min             =  -2.8654927246737E-02
(PID.TID 0000.0001) %MON dynstat_vvel_mean            =  -5.2604271176055E-07
(PID.TID 0000.0001) %MON dynstat_vvel_sd              =   1.2832879359677E-02
(PID.TID 0000.0001) %MON dynstat_vvel_del2            =   5.5041113577652E-07
(PID.TID 0000.0001) %MON dynstat_wvel_max             =   4.2348123820848E-08
(PID.TID 0000.0001) %MON dynstat_wvel_min             =  -2.7306185633643E-08
(PID.TID 0000.0001) %MON dynstat_wvel_mean            =  -1.9800204331271E-21
(PID.TID 0000.0001) %MON dynstat_wvel_sd              =   1.4256234823858E-08
(PID.TID 0000.0001) %MON dynstat_wvel_del2            =   1.0175212629603E-13
(PID.TID 0000.0001) %MON dynstat_theta_max            =   2.0000000000000E+01
(PID.TID 0000.0001) %MON dynstat_theta_min            =   2.0000000000000E+01
(PID.TID 0000.0001) %MON dynstat_theta_mean           =   1.9999999999999E+01
(PID.TID 0000.0001) %MON dynstat_theta_sd             =   1.1972645097557E-12
(PID.TID 0000.0001) %MON dynstat_theta_del2           =   0.0000000000000E+00
(PID.TID 0000.0001) %MON dynstat_salt_max             =   3.0000000000000E+01
(PID.TID 0000.0001) %MON dynstat_salt_min             =   3.0000000000000E+01
(PID.TID 0000.0001) %MON dynstat_salt_mean            =   2.9999999999998E+01
(PID.TID 0000.0001) %MON dynstat_salt_sd              =   2.1529444893531E-12
(PID.TID 0000.0001) %MON dynstat_salt_del2            =   0.0000000000000E+00
(PID.TID 0000.0001) %MON trAdv_CFL_u_max              =   1.0078153771150E-02
(PID.TID 0000.0001) %MON trAdv_CFL_v_max              =   6.8758349404804E-03
(PID.TID 0000.0001) %MON trAdv_CFL_w_max              =   1.0754018063750E-08
(PID.TID 0000.0001) %MON advcfl_uvel_max              =   1.0082218306333E-02
(PID.TID 0000.0001) %MON advcfl_vvel_max              =   6.8771825392168E-03
(PID.TID 0000.0001) %MON advcfl_wvel_max              =   2.0327099434007E-08
(PID.TID 0000.0001) %MON advcfl_W_hf_max              =   0.0000000000000E+00
(PID.TID 0000.0001) %MON pe_b_mean                    =   1.4616801558045E-06
(PID.TID 0000.0001) %MON ke_max                       =   8.8242058052475E-04
(PID.TID 0000.0001) %MON ke_mean                      =   2.0508913560206E-04
(PID.TID 0000.0001) %MON ke_vol                       =   7.2529629296391E+15
(PID.TID 0000.0001) %MON vort_r_min                   =  -1.4584688789574E-06
(PID.TID 0000.0001) %MON vort_r_max                   =   1.5053215421090E-06
(PID.TID 0000.0001) %MON vort_a_mean                  =   1.0615000000000E-04
(PID.TID 0000.0001) %MON vort_a_sd                    =   3.5725746656551E-06
(PID.TID 0000.0001) %MON vort_p_mean                  =   1.1210870169429E-04
(PID.TID 0000.0001) %MON vort_p_sd                    =   2.1054434906766E-05
(PID.TID 0000.0001) %MON surfExpan_theta_mean         =  -3.8879570313301E-20
(PID.TID 0000.0001) %MON surfExpan_salt_mean          =  -5.8022213439373E-20
(PID.TID 0000.0001) // =======================================================
(PID.TID 0000.0001) // End MONITOR dynamic field statistics
(PID.TID 0000.0001) // =======================================================
 cg2d: Sum(rhs),rhsMax =   5.18513566869589E-05  4.53333380651772E-03
 cg2d: Sum(rhs),rhsMax =   5.18789135390001E-05  4.53485310848769E-03
 cg2d: Sum(rhs),rhsMax =   5.19064548670594E-05  4.53637188765654E-03
 cg2d: Sum(rhs),rhsMax =   5.19339632435250E-05  4.53789014271216E-03
 cg2d: Sum(rhs),rhsMax =   5.19614261451679E-05  4.53940787299620E-03
 cg2d: Sum(rhs),rhsMax =   5.19888738177055E-05  4.54092507738034E-03
 cg2d: Sum(rhs),rhsMax =   5.20162800668532E-05  4.54244175505342E-03
 cg2d: Sum(rhs),rhsMax =   5.20436594209999E-05  4.54395790503423E-03
 cg2d: Sum(rhs),rhsMax =   5.20710164253519E-05  4.54547352639010E-03
 cg2d: Sum(rhs),rhsMax =   5.20983237066292E-05  4.54698861825997E-03
 cg2d: Sum(rhs),rhsMax =   5.21255775963328E-05  4.54850317961893E-03
 cg2d: Sum(rhs),rhsMax =   5.21528108773043E-05  4.55001720969540E-03
 cg2d: Sum(rhs),rhsMax =   5.21800203428170E-05  4.55153070739724E-03
 cg2d: Sum(rhs),rhsMax =   5.22071932369541E-05  4.55304367201956E-03
 cg2d: Sum(rhs),rhsMax =   5.22343161235420E-05  4.55455610243364E-03
 cg2d: Sum(rhs),rhsMax =   5.22614234840957E-05  4.55606799797010E-03
 cg2d: Sum(rhs),rhsMax =   5.22884816864032E-05  4.55757935748058E-03
 cg2d: Sum(rhs),rhsMax =   5.23155012521900E-05  4.55909018032240E-03
 cg2d: Sum(rhs),rhsMax =   5.23424915271095E-05  4.56060046534207E-03
 cg2d: Sum(rhs),rhsMax =   5.23694645237064E-05  4.56211021190628E-03
 cg2d: Sum(rhs),rhsMax =   5.23963900174709E-05  4.56361941886769E-03
 cg2d: Sum(rhs),rhsMax =   5.24232778443792E-05  4.56512808559443E-03
 cg2d: Sum(rhs),rhsMax =   5.24501162508574E-05  4.56663621095618E-03
 cg2d: Sum(rhs),rhsMax =   5.24769403072473E-05  4.56814379431023E-03
 cg2d: Sum(rhs),rhsMax =   5.25037192515318E-05  4.56965083455267E-03
 cg2d: Sum(rhs),rhsMax =   5.25304328473466E-05  4.57115733102095E-03
 cg2d: Sum(rhs),rhsMax =   5.25571361105475E-05  4.57266328264966E-03
 cg2d: Sum(rhs),rhsMax =   5.25837994324832E-05  4.57416868874841E-03
 cg2d: Sum(rhs),rhsMax =   5.26104263298770E-05  4.57567354828643E-03
 cg2d: Sum(rhs),rhsMax =   5.26370346833546E-05  4.57717786055325E-03
 cg2d: Sum(rhs),rhsMax =   5.26635751168987E-05  4.57868162455512E-03
 cg2d: Sum(rhs),rhsMax =   5.26900942260384E-05  4.58018483955164E-03
 cg2d: Sum(rhs),rhsMax =   5.27165743368452E-05  4.58168750459095E-03
 cg2d: Sum(rhs),rhsMax =   5.27430116659701E-05  4.58318961890213E-03
 cg2d: Sum(rhs),rhsMax =   5.27693981783219E-05  4.58469118157643E-03
 cg2d: Sum(rhs),rhsMax =   5.27957537226373E-05  4.58619219181167E-03
 cg2d: Sum(rhs),rhsMax =   5.28221002109885E-05  4.58769264874331E-03
 cg2d: Sum(rhs),rhsMax =   5.28431885834949E-05  4.58964349512132E-03
 cg2d: Sum(rhs),rhsMax =   5.28376459765509E-05  4.59390484203410E-03
 cg2d: Sum(rhs),rhsMax =   5.28321083231665E-05  4.59816573553722E-03
 cg2d: Sum(rhs),rhsMax =   5.28265189599986E-05  4.60242615102022E-03
 cg2d: Sum(rhs),rhsMax =   5.28209675401900E-05  4.60668606943731E-03
 cg2d: Sum(rhs),rhsMax =   5.28153716537185E-05  4.61094546624298E-03
 cg2d: Sum(rhs),rhsMax =   5.28097573666249E-05  4.61520432238627E-03
 cg2d: Sum(rhs),rhsMax =   5.28041420109508E-05  4.61946261338045E-03
 cg2d: Sum(rhs),rhsMax =   5.27985141412532E-05  4.62372032017601E-03
 cg2d: Sum(rhs),rhsMax =   5.27928809592546E-05  4.62797741834656E-03
 cg2d: Sum(rhs),rhsMax =   5.27872294208709E-05  4.63223388883825E-03
 cg2d: Sum(rhs),rhsMax =   5.27815551232052E-05  4.63648970728802E-03
 cg2d: Sum(rhs),rhsMax =   5.27758851775395E-05  4.64074485464392E-03
 cg2d: Sum(rhs),rhsMax =   5.27701910507800E-05  4.64499930660250E-03
 cg2d: Sum(rhs),rhsMax =   5.27645138069124E-05  4.64925304411084E-03
 cg2d: Sum(rhs),rhsMax =   5.27588011343216E-05  4.65350604292687E-03
 cg2d: Sum(rhs),rhsMax =   5.27530627245903E-05  4.65775828400403E-03
 cg2d: Sum(rhs),rhsMax =   5.27473123656500E-05  4.66200974315888E-03
 cg2d: Sum(rhs),rhsMax =   5.27415590197563E-05  4.66626040134483E-03
 cg2d: Sum(rhs),rhsMax =   5.27357920327622E-05  4.67051023444366E-03
 cg2d: Sum(rhs),rhsMax =   5.27300344002972E-05  4.67475922341589E-03
 cg2d: Sum(rhs),rhsMax =   5.27242511976999E-05  4.67900734419670E-03
 cg2d: Sum(rhs),rhsMax =   5.27184486924827E-05  4.68325457775727E-03
 cg2d: Sum(rhs),rhsMax =   5.27126402316788E-05  4.68750090009214E-03
 cg2d: Sum(rhs),rhsMax =   5.27068190292526E-05  4.69174629218076E-03
 cg2d: Sum(rhs),rhsMax =   5.27009903501688E-05  4.69599073007920E-03
 cg2d: Sum(rhs),rhsMax =   5.26951299209006E-05  4.70023419477350E-03
 cg2d: Sum(rhs),rhsMax =   5.26892898988758E-05  4.70447666237999E-03
 cg2d: Sum(rhs),rhsMax =   5.26834177117656E-05  4.70871811389440E-03
 cg2d: Sum(rhs),rhsMax =   5.26775516058423E-05  4.71295852549454E-03
 cg2d: Sum(rhs),rhsMax =   5.26716469029149E-05  4.71719787818875E-03
 cg2d: Sum(rhs),rhsMax =   5.26657367573233E-05  4.72143614820977E-03
 cg2d: Sum(rhs),rhsMax =   5.26598181988973E-05  4.72567331658027E-03
 cg2d: Sum(rhs),rhsMax =   5.26539083245913E-05  4.72990935959857E-03
 cg2d: Sum(rhs),rhsMax =   5.26479827073541E-05  4.73414425829609E-03
(PID.TID 0000.0001)      cg2d_init_res =   2.05448314427580E-02
(PID.TID 0000.0001)      cg2d_iters(min,last) =      -1     405
(PID.TID 0000.0001)      cg2d_last_res =   9.63637110914703E-08
(PID.TID 0000.0001) // =======================================================
(PID.TID 0000.0001) // Begin MONITOR dynamic field statistics
(PID.TID 0000.0001) // =======================================================
(PID.TID 0000.0001) %MON time_tsnumber                =                  2736
(PID.TID 0000.0001) %MON time_secondsf                =   3.2832000000000E+06
(PID.TID 0000.0001) %MON dynstat_eta_max              =   5.2163328049147E-02
(PID.TID 0000.0001) %MON dynstat_eta_min              =  -9.2446681270800E-02
(PID.TID 0000.0001) %MON dynstat_eta_mean             =  -1.1870213968438E-09
(PID.TID 0000.0001) %MON dynstat_eta_sd               =   3.8732436433548E-02
(PID.TID 0000.0001) %MON dynstat_eta_del2             =   2.2050359644597E-07
(PID.TID 0000.0001) %MON dynstat_uvel_max             =   3.4793237776692E-02
(PID.TID 0000.0001) %MON dynstat_uvel_min             =  -4.3229192480682E-02
(PID.TID 0000.0001) %MON dynstat_uvel_mean            =  -1.5987883174196E-07
(PID.TID 0000.0001) %MON dynstat_uvel_sd              =   1.6076697284170E-02
(PID.TID 0000.0001) %MON dynstat_uvel_del2            =   5.0488161101494E-07
(PID.TID 0000.0001) %MON dynstat_vvel_max             =   2.8926544365969E-02
(PID.TID 0000.0001) %MON dynstat_vvel_min             =  -2.8838742889049E-02
(PID.TID 0000.0001) %MON dynstat_vvel_mean            =  -4.8362018316726E-07
(PID.TID 0000.0001) %MON dynstat_vvel_sd              =   1.3157485575799E-02
(PID.TID 0000.0001) %MON dynstat_vvel_del2            =   5.7965548082487E-07
(PID.TID 0000.0001) %MON dynstat_wvel_max             =   4.1448576900875E-08
(PID.TID 0000.0001) %MON dynstat_wvel_min             =  -2.6866380566498E-08
(PID.TID 0000.0001) %MON dynstat_wvel_mean            =   1.1855191148141E-21
(PID.TID 0000.0001) %MON dynstat_wvel_sd              =   1.3920288160044E-08
(PID.TID 0000.0001) %MON dynstat_wvel_del2            =   1.0290045102919E-13
(PID.TID 0000.0001) %MON dynstat_theta_max            =   2.0000000000000E+01
(PID.TID 0000.0001) %MON dynstat_theta_min            =   2.0000000000000E+01
(PID.TID 0000.0001) %MON dynstat_theta_mean           =   1.9999999999999E+01
(PID.TID 0000.0001) %MON dynstat_theta_sd             =   1.1972645097557E-12
(PID.TID 0000.0001) %MON dynstat_theta_del2           =   0.0000000000000E+00
(PID.TID 0000.0001) %MON dynstat_salt_max             =   3.0000000000000E+01
(PID.TID 0000.0001) %MON dynstat_salt_min             =   3.0000000000000E+01
(PID.TID 0000.0001) %MON dynstat_salt_mean            =   2.9999999999998E+01
(PID.TID 0000.0001) %MON dynstat_salt_sd              =   2.1529444893531E-12
(PID.TID 0000.0001) %MON dynstat_salt_del2            =   0.0000000000000E+00
(PID.TID 0000.0001) %MON trAdv_CFL_u_max              =   1.0370931130130E-02
(PID.TID 0000.0001) %MON trAdv_CFL_v_max              =   6.9354983784506E-03
(PID.TID 0000.0001) %MON trAdv_CFL_w_max              =   1.0520010381564E-08
(PID.TID 0000.0001) %MON advcfl_uvel_max              =   1.0375006195364E-02
(PID.TID 0000.0001) %MON advcfl_vvel_max              =   6.9423706478327E-03
(PID.TID 0000.0001) %MON advcfl_wvel_max              =   1.9895316912420E-08
(PID.TID 0000.0001) %MON advcfl_W_hf_max              =   0.0000000000000E+00
(PID.TID 0000.0001) %MON pe_b_mean                    =   1.5349117490585E-06
(PID.TID 0000.0001) %MON ke_max                       =   9.3446577474171E-04
(PID.TID 0000.0001) %MON ke_mean                      =   2.1481845918811E-04
(PID.TID 0000.0001) %MON ke_vol                       =   7.2529629296391E+15
(PID.TID 0000.0001) %MON vort_r_min                   =  -1.4951035397790E-06
(PID.TID 0000.0001) %MON vort_r_max                   =   1.6088043182284E-06
(PID.TID 0000.0001) %MON vort_a_mean                  =   1.0615000000000E-04
(PID.TID 0000.0001) %MON vort_a_sd                    =   3.5729819588595E-06
(PID.TID 0000.0001) %MON vort_p_mean                  =   1.1210870169429E-04
(PID.TID 0000.0001) %MON vort_p_sd                    =   2.1054495385236E-05
(PID.TID 0000.0001) %MON surfExpan_theta_mean         =   2.3415128283285E-20
(PID.TID 0000.0001) %MON surfExpan_salt_mean          =   3.5584758896704E-20
(PID.TID 0000.0001) // =======================================================
(PID.TID 0000.0001) // End MONITOR dynamic field statistics
(PID.TID 0000.0001) // =======================================================
 cg2d: Sum(rhs),rhsMax =   5.26420435028852E-05  4.73837798902690E-03
 cg2d: Sum(rhs),rhsMax =   5.26360735364371E-05  4.74261053284464E-03
 cg2d: Sum(rhs),rhsMax =   5.26301158014580E-05  4.74684186615890E-03
 cg2d: Sum(rhs),rhsMax =   5.26241502765850E-05  4.75107197004112E-03
 cg2d: Sum(rhs),rhsMax =   5.26181680546801E-05  4.75530082095945E-03
 cg2d: Sum(rhs),rhsMax =   5.26120576920064E-05  4.75953875462472E-03
 cg2d: Sum(rhs),rhsMax =   5.26055817083539E-05  4.76380618693212E-03
 cg2d: Sum(rhs),rhsMax =   5.25991024202929E-05  4.76807241257921E-03
 cg2d: Sum(rhs),rhsMax =   5.25926302064187E-05  4.77233740647533E-03
 cg2d: Sum(rhs),rhsMax =   5.25901674503346E-05  4.77660114656544E-03
 cg2d: Sum(rhs),rhsMax =   5.25876967880060E-05  4.78086361839763E-03
 cg2d: Sum(rhs),rhsMax =   5.25852058717571E-05  4.78512479463138E-03
 cg2d: Sum(rhs),rhsMax =   5.25826707073350E-05  4.78938465766592E-03
 cg2d: Sum(rhs),rhsMax =   5.25801486121204E-05  4.79364318262405E-03
 cg2d: Sum(rhs),rhsMax =   5.25775695423521E-05  4.79790035225533E-03
 cg2d: Sum(rhs),rhsMax =   5.25749840062783E-05  4.80215613957845E-03
 cg2d: Sum(rhs),rhsMax =   5.25723925757630E-05  4.80641052887634E-03
 cg2d: Sum(rhs),rhsMax =   5.25697806522509E-05  4.81066349477940E-03
 cg2d: Sum(rhs),rhsMax =   5.25671690375688E-05  4.81491502032169E-03
 cg2d: Sum(rhs),rhsMax =   5.25645137443873E-05  4.81916508041651E-03
 cg2d: Sum(rhs),rhsMax =   5.25618338596474E-05  4.82341365747203E-03
 cg2d: Sum(rhs),rhsMax =   5.25591510488015E-05  4.82766072730475E-03
 cg2d: Sum(rhs),rhsMax =   5.25564334180341E-05  4.83190627152295E-03
 cg2d: Sum(rhs),rhsMax =   5.25537216407546E-05  4.83615026676965E-03
 cg2d: Sum(rhs),rhsMax =   5.25509523228451E-05  4.84039269546452E-03
 cg2d: Sum(rhs),rhsMax =   5.25482052182499E-05  4.84463352986210E-03
 cg2d: Sum(rhs),rhsMax =   5.25454183266485E-05  4.84887275484358E-03
 cg2d: Sum(rhs),rhsMax =   5.25426265515318E-05  4.85311034724486E-03
 cg2d: Sum(rhs),rhsMax =   5.25397845059234E-05  4.85734628839502E-03
 cg2d: Sum(rhs),rhsMax =   5.25369503184773E-05  4.86158055370566E-03
 cg2d: Sum(rhs),rhsMax =   5.25340684693434E-05  4.86581312581033E-03
 cg2d: Sum(rhs),rhsMax =   5.25311947539354E-05  4.87004398014757E-03
 cg2d: Sum(rhs),rhsMax =   5.25283141536131E-05  4.87427309987898E-03
 cg2d: Sum(rhs),rhsMax =   5.25253902229298E-05  4.87850046019678E-03
 cg2d: Sum(rhs),rhsMax =   5.25224733060620E-05  4.88272604404236E-03
 cg2d: Sum(rhs),rhsMax =   5.25195215456582E-05  4.88694982720228E-03
 cg2d: Sum(rhs),rhsMax =   5.25165413101233E-05  4.89117179177824E-03
 cg2d: Sum(rhs),rhsMax =   5.25135636326658E-05  4.89539191440644E-03
 cg2d: Sum(rhs),rhsMax =   5.25105514041977E-05  4.89961017674554E-03
 cg2d: Sum(rhs),rhsMax =   5.25075304559448E-05  4.90382655541796E-03
 cg2d: Sum(rhs),rhsMax =   5.25044896015913E-05  4.90804103311571E-03
 cg2d: Sum(rhs),rhsMax =   5.25014034921346E-05  4.91225358559580E-03
 cg2d: Sum(rhs),rhsMax =   5.24983384882073E-05  4.91646419604598E-03
 cg2d: Sum(rhs),rhsMax =   5.24952227949856E-05  4.92067283978714E-03
 cg2d: Sum(rhs),rhsMax =   5.24920827748702E-05  4.92487950095346E-03
 cg2d: Sum(rhs),rhsMax =   5.24889507662848E-05  4.92908415431100E-03
 cg2d: Sum(rhs),rhsMax =   5.24857852962088E-05  4.93328678226527E-03
 cg2d: Sum(rhs),rhsMax =   5.24826094186032E-05  4.93748736316634E-03
 cg2d: Sum(rhs),rhsMax =   5.24794382072067E-05  4.94168587581113E-03
 cg2d: Sum(rhs),rhsMax =   5.24762299426277E-05  4.94588229880652E-03
 cg2d: Sum(rhs),rhsMax =   5.24730059590463E-05  4.95007661674721E-03
 cg2d: Sum(rhs),rhsMax =   5.24697685375269E-05  4.95426880441365E-03
 cg2d: Sum(rhs),rhsMax =   5.24665085598719E-05  4.95845884428506E-03
 cg2d: Sum(rhs),rhsMax =   5.24632184503856E-05  4.96264671302972E-03
 cg2d: Sum(rhs),rhsMax =   5.24599176203208E-05  4.96683239375392E-03
 cg2d: Sum(rhs),rhsMax =   5.24566046213979E-05  4.97101586268683E-03
 cg2d: Sum(rhs),rhsMax =   5.24532810805126E-05  4.97519710292306E-03
 cg2d: Sum(rhs),rhsMax =   5.24499124684101E-05  4.97937609092798E-03
 cg2d: Sum(rhs),rhsMax =   5.24465394379054E-05  4.98355280957617E-03
 cg2d: Sum(rhs),rhsMax =   5.24431181052854E-05  4.98772723704476E-03
 cg2d: Sum(rhs),rhsMax =   5.24397006502946E-05  4.99189935203268E-03
 cg2d: Sum(rhs),rhsMax =   5.24362776917783E-05  4.99606913403396E-03
 cg2d: Sum(rhs),rhsMax =   5.24328415692670E-05  5.00023656701409E-03
 cg2d: Sum(rhs),rhsMax =   5.24293799597651E-05  5.00440162713159E-03
 cg2d: Sum(rhs),rhsMax =   5.24258917499331E-05  5.00856429658670E-03
 cg2d: Sum(rhs),rhsMax =   5.24223795757960E-05  5.01272455362154E-03
 cg2d: Sum(rhs),rhsMax =   5.24188465736422E-05  5.01688237865805E-03
 cg2d: Sum(rhs),rhsMax =   5.24153237755243E-05  5.02103775082605E-03
 cg2d: Sum(rhs),rhsMax =   5.24117560257219E-05  5.02519065237396E-03
 cg2d: Sum(rhs),rhsMax =   5.24081894477564E-05  5.02934106093463E-03
 cg2d: Sum(rhs),rhsMax =   5.24045859465396E-05  5.03348895917800E-03
 cg2d: Sum(rhs),rhsMax =   5.24009807511582E-05  5.03763432451908E-03
(PID.TID 0000.0001)      cg2d_init_res =   1.94327987035783E-02
(PID.TID 0000.0001)      cg2d_iters(min,last) =      -1     404
(PID.TID 0000.0001)      cg2d_last_res =   9.67087964265442E-08
(PID.TID 0000.0001) // =======================================================
(PID.TID 0000.0001) // Begin MONITOR dynamic field statistics
(PID.TID 0000.0001) // =======================================================
(PID.TID 0000.0001) %MON time_tsnumber                =                  2808
(PID.TID 0000.0001) %MON time_secondsf                =   3.3696000000000E+06
(PID.TID 0000.0001) %MON dynstat_eta_max              =   5.4015513513669E-02
(PID.TID 0000.0001) %MON dynstat_eta_min              =  -9.4554170511696E-02
(PID.TID 0000.0001) %MON dynstat_eta_mean             =  -1.2571559625323E-09
(PID.TID 0000.0001) %MON dynstat_eta_sd               =   3.9657473994380E-02
(PID.TID 0000.0001) %MON dynstat_eta_del2             =   2.2632796634906E-07
(PID.TID 0000.0001) %MON dynstat_uvel_max             =   3.4906825327008E-02
(PID.TID 0000.0001) %MON dynstat_uvel_min             =  -4.4450197456859E-02
(PID.TID 0000.0001) %MON dynstat_uvel_mean            =  -1.6792385344956E-07
(PID.TID 0000.0001) %MON dynstat_uvel_sd              =   1.6407185544252E-02
(PID.TID 0000.0001) %MON dynstat_uvel_del2            =   5.0914806334860E-07
(PID.TID 0000.0001) %MON dynstat_vvel_max             =   3.0840789411605E-02
(PID.TID 0000.0001) %MON dynstat_vvel_min             =  -2.9037318349921E-02
(PID.TID 0000.0001) %MON dynstat_vvel_mean            =  -4.3886673153576E-07
(PID.TID 0000.0001) %MON dynstat_vvel_sd              =   1.3510673416869E-02
(PID.TID 0000.0001) %MON dynstat_vvel_del2            =   6.0926673627283E-07
(PID.TID 0000.0001) %MON dynstat_wvel_max             =   4.0272652695421E-08
(PID.TID 0000.0001) %MON dynstat_wvel_min             =  -2.6466250186204E-08
(PID.TID 0000.0001) %MON dynstat_wvel_mean            =  -1.0617625343868E-21
(PID.TID 0000.0001) %MON dynstat_wvel_sd              =   1.3559919854625E-08
(PID.TID 0000.0001) %MON dynstat_wvel_del2            =   1.0416401393009E-13
(PID.TID 0000.0001) %MON dynstat_theta_max            =   2.0000000000000E+01
(PID.TID 0000.0001) %MON dynstat_theta_min            =   2.0000000000000E+01
(PID.TID 0000.0001) %MON dynstat_theta_mean           =   1.9999999999999E+01
(PID.TID 0000.0001) %MON dynstat_theta_sd             =   1.1972645097557E-12
(PID.TID 0000.0001) %MON dynstat_theta_del2           =   0.0000000000000E+00
(PID.TID 0000.0001) %MON dynstat_salt_max             =   3.0000000000000E+01
(PID.TID 0000.0001) %MON dynstat_salt_min             =   3.0000000000000E+01
(PID.TID 0000.0001) %MON dynstat_salt_mean            =   2.9999999999998E+01
(PID.TID 0000.0001) %MON dynstat_salt_sd              =   2.1529444893531E-12
(PID.TID 0000.0001) %MON dynstat_salt_del2            =   0.0000000000000E+00
(PID.TID 0000.0001) %MON trAdv_CFL_u_max              =   1.0663983836826E-02
(PID.TID 0000.0001) %MON trAdv_CFL_v_max              =   7.3946679769180E-03
(PID.TID 0000.0001) %MON trAdv_CFL_w_max              =   1.0212847409652E-08
(PID.TID 0000.0001) %MON advcfl_uvel_max              =   1.0668047389646E-02
(PID.TID 0000.0001) %MON advcfl_vvel_max              =   7.4017894587851E-03
(PID.TID 0000.0001) %MON advcfl_wvel_max              =   1.9330873293802E-08
(PID.TID 0000.0001) %MON advcfl_W_hf_max              =   0.0000000000000E+00
(PID.TID 0000.0001) %MON pe_b_mean                    =   1.6091031056958E-06
(PID.TID 0000.0001) %MON ke_max                       =   9.8793799822695E-04
(PID.TID 0000.0001) %MON ke_mean                      =   2.2485030353920E-04
(PID.TID 0000.0001) %MON ke_vol                       =   7.2529629296391E+15
(PID.TID 0000.0001) %MON vort_r_min                   =  -1.5308696791120E-06
(PID.TID 0000.0001) %MON vort_r_max                   =   1.7128264984148E-06
(PID.TID 0000.0001) %MON vort_a_mean                  =   1.0615000000000E-04
(PID.TID 0000.0001) %MON vort_a_sd                    =   3.5734052242246E-06
(PID.TID 0000.0001) %MON vort_p_mean                  =   1.1210870169429E-04
(PID.TID 0000.0001) %MON vort_p_sd                    =   2.1054581122013E-05
(PID.TID 0000.0001) %MON surfExpan_theta_mean         =  -2.0913805568846E-20
(PID.TID 0000.0001) %MON surfExpan_salt_mean          =  -3.1434957309744E-20
(PID.TID 0000.0001) // =======================================================
(PID.TID 0000.0001) // End MONITOR dynamic field statistics
(PID.TID 0000.0001) // =======================================================
 cg2d: Sum(rhs),rhsMax =   5.23973626182048E-05  5.04177713995015E-03
 cg2d: Sum(rhs),rhsMax =   5.23937059692850E-05  5.04591738338638E-03
 cg2d: Sum(rhs),rhsMax =   5.23899280053996E-05  5.05006675356536E-03
 cg2d: Sum(rhs),rhsMax =   5.23857638670279E-05  5.05424822364233E-03
 cg2d: Sum(rhs),rhsMax =   5.23815742892086E-05  5.05842715966211E-03
 cg2d: Sum(rhs),rhsMax =   5.23773815380346E-05  5.06260353937496E-03
 cg2d: Sum(rhs),rhsMax =   5.23731673860183E-05  5.06677734465232E-03
 cg2d: Sum(rhs),rhsMax =   5.23689175775690E-05  5.07094855365823E-03
 cg2d: Sum(rhs),rhsMax =   5.23690230983156E-05  5.07511714434716E-03
 cg2d: Sum(rhs),rhsMax =   5.23690596368842E-05  5.07928310449616E-03
 cg2d: Sum(rhs),rhsMax =   5.23691038421515E-05  5.08344640943158E-03
 cg2d: Sum(rhs),rhsMax =   5.23691128648798E-05  5.08760703956055E-03
 cg2d: Sum(rhs),rhsMax =   5.23690708874910E-05  5.09176497524655E-03
 cg2d: Sum(rhs),rhsMax =   5.23690116332953E-05  5.09592019718390E-03
 cg2d: Sum(rhs),rhsMax =   5.23689202698296E-05  5.10007268466097E-03
 cg2d: Sum(rhs),rhsMax =   5.23688096720968E-05  5.10422241948793E-03
 cg2d: Sum(rhs),rhsMax =   5.23686584200515E-05  5.10836938023693E-03
 cg2d: Sum(rhs),rhsMax =   5.23685029154880E-05  5.11251354917927E-03
 cg2d: Sum(rhs),rhsMax =   5.23682928963913E-05  5.11665490462168E-03
 cg2d: Sum(rhs),rhsMax =   5.23680842613803E-05  5.12079342939204E-03
 cg2d: Sum(rhs),rhsMax =   5.23678329502641E-05  5.12492910129938E-03
 cg2d: Sum(rhs),rhsMax =   5.23675590957285E-05  5.12906190373543E-03
 cg2d: Sum(rhs),rhsMax =   5.23672904215312E-05  5.13319181410969E-03
 cg2d: Sum(rhs),rhsMax =   5.23669420664553E-05  5.13731881623231E-03
 cg2d: Sum(rhs),rhsMax =   5.23666077970508E-05  5.14144288734759E-03
 cg2d: Sum(rhs),rhsMax =   5.23662268703247E-05  5.14556401140636E-03
 cg2d: Sum(rhs),rhsMax =   5.23658271670291E-05  5.14968216577515E-03
 cg2d: Sum(rhs),rhsMax =   5.23653964966688E-05  5.15379733427546E-03
 cg2d: Sum(rhs),rhsMax =   5.23649368081836E-05  5.15790949461846E-03
 cg2d: Sum(rhs),rhsMax =   5.23644398805257E-05  5.16201863036879E-03
 cg2d: Sum(rhs),rhsMax =   5.23639241240717E-05  5.16612471960372E-03
 cg2d: Sum(rhs),rhsMax =   5.23633983586008E-05  5.17022774567509E-03
 cg2d: Sum(rhs),rhsMax =   5.23628417603791E-05  5.17432768696604E-03
 cg2d: Sum(rhs),rhsMax =   5.23622554892990E-05  5.17842452666977E-03
 cg2d: Sum(rhs),rhsMax =   5.23616303276290E-05  5.18251824344167E-03
 cg2d: Sum(rhs),rhsMax =   5.23609723279161E-05  5.18660882033040E-03
 cg2d: Sum(rhs),rhsMax =   5.23602937175147E-05  5.19069623626507E-03
 cg2d: Sum(rhs),rhsMax =   5.23596039023566E-05  5.19478047413482E-03
 cg2d: Sum(rhs),rhsMax =   5.23588746704593E-05  5.19886151316881E-03
 cg2d: Sum(rhs),rhsMax =   5.23581152277164E-05  5.20293933606924E-03
 cg2d: Sum(rhs),rhsMax =   5.23573365585860E-05  5.20701392238596E-03
 cg2d: Sum(rhs),rhsMax =   5.23565200551894E-05  5.21108525461560E-03
 cg2d: Sum(rhs),rhsMax =   5.23557029737842E-05  5.21515331264448E-03
 cg2d: Sum(rhs),rhsMax =   5.23548586827492E-05  5.21921807877099E-03
 cg2d: Sum(rhs),rhsMax =   5.23539719725584E-05  5.22327953319467E-03
 cg2d: Sum(rhs),rhsMax =   5.23530723815090E-05  5.22733765803999E-03
 cg2d: Sum(rhs),rhsMax =   5.23521204489367E-05  5.23139243379160E-03
 cg2d: Sum(rhs),rhsMax =   5.23511537576884E-05  5.23544384243979E-03
 cg2d: Sum(rhs),rhsMax =   5.23501762637723E-05  5.23949186471753E-03
 cg2d: Sum(rhs),rhsMax =   5.23491358839201E-05  5.24353648251363E-03
 cg2d: Sum(rhs),rhsMax =   5.23481060126898E-05  5.24757767677677E-03
 cg2d: Sum(rhs),rhsMax =   5.23470407170412E-05  5.25161542932215E-03
 cg2d: Sum(rhs),rhsMax =   5.23459538853254E-05  5.25564972129591E-03
 cg2d: Sum(rhs),rhsMax =   5.23448213463229E-05  5.25968053446075E-03
 cg2d: Sum(rhs),rhsMax =   5.23436815782167E-05  5.26370785013716E-03
 cg2d: Sum(rhs),rhsMax =   5.23425052969390E-05  5.26773165004811E-03
 cg2d: Sum(rhs),rhsMax =   5.23413055816290E-05  5.27175191568585E-03
 cg2d: Sum(rhs),rhsMax =   5.23400503101958E-05  5.27576862874163E-03
 cg2d: Sum(rhs),rhsMax =   5.23388196472278E-05  5.27978177086736E-03
 cg2d: Sum(rhs),rhsMax =   5.23375452389109E-05  5.28379132373443E-03
 cg2d: Sum(rhs),rhsMax =   5.23362494238182E-05  5.28779726914155E-03
 cg2d: Sum(rhs),rhsMax =   5.23349219044980E-05  5.29179958875380E-03
 cg2d: Sum(rhs),rhsMax =   5.23335599475996E-05  5.29579826450951E-03
 cg2d: Sum(rhs),rhsMax =   5.23321902547337E-05  5.29979327807484E-03
 cg2d: Sum(rhs),rhsMax =   5.23307842960001E-05  5.30378461151856E-03
 cg2d: Sum(rhs),rhsMax =   5.23293380839504E-05  5.30777224651768E-03
 cg2d: Sum(rhs),rhsMax =   5.23278900059528E-05  5.31175616525975E-03
 cg2d: Sum(rhs),rhsMax =   5.23260086249961E-05  5.31577634833706E-03
 cg2d: Sum(rhs),rhsMax =   5.23240004022620E-05  5.31980357516459E-03
 cg2d: Sum(rhs),rhsMax =   5.23219709714431E-05  5.32382711477906E-03
 cg2d: Sum(rhs),rhsMax =   5.23199106609380E-05  5.32784695052721E-03
 cg2d: Sum(rhs),rhsMax =   5.23178384221588E-05  5.33186306272708E-03
(PID.TID 0000.0001)      cg2d_init_res =   1.84304546727514E-02
(PID.TID 0000.0001)      cg2d_iters(min,last) =      -1     403
(PID.TID 0000.0001)      cg2d_last_res =   9.51359317382341E-08
(PID.TID 0000.0001) // =======================================================
(PID.TID 0000.0001) // Begin MONITOR dynamic field statistics
(PID.TID 0000.0001) // =======================================================
(PID.TID 0000.0001) %MON time_tsnumber                =                  2880
(PID.TID 0000.0001) %MON time_secondsf                =   3.4560000000000E+06
(PID.TID 0000.0001) %MON dynstat_eta_max              =   5.5718088804439E-02
(PID.TID 0000.0001) %MON dynstat_eta_min              =  -9.6672174674104E-02
(PID.TID 0000.0001) %MON dynstat_eta_mean             =  -1.3284160383294E-09
(PID.TID 0000.0001) %MON dynstat_eta_sd               =   4.0567142219021E-02
(PID.TID 0000.0001) %MON dynstat_eta_del2             =   2.3226659914125E-07
(PID.TID 0000.0001) %MON dynstat_uvel_max             =   3.5019663030970E-02
(PID.TID 0000.0001) %MON dynstat_uvel_min             =  -4.5666353266000E-02
(PID.TID 0000.0001) %MON dynstat_uvel_mean            =  -1.6525232563130E-07
(PID.TID 0000.0001) %MON dynstat_uvel_sd              =   1.6719190780767E-02
(PID.TID 0000.0001) %MON dynstat_uvel_del2            =   5.1291947516559E-07
(PID.TID 0000.0001) %MON dynstat_vvel_max             =   3.2795502949339E-02
(PID.TID 0000.0001) %MON dynstat_vvel_min             =  -2.9354448752870E-02
(PID.TID 0000.0001) %MON dynstat_vvel_mean            =  -3.9378892244504E-07
(PID.TID 0000.0001) %MON dynstat_vvel_sd              =   1.3887999877587E-02
(PID.TID 0000.0001) %MON dynstat_vvel_del2            =   6.3853686443542E-07
(PID.TID 0000.0001) %MON dynstat_wvel_max             =   3.8932602393907E-08
(PID.TID 0000.0001) %MON dynstat_wvel_min             =  -2.6081498097337E-08
(PID.TID 0000.0001) %MON dynstat_wvel_mean            =   3.6925350382470E-21
(PID.TID 0000.0001) %MON dynstat_wvel_sd              =   1.3188521230962E-08
(PID.TID 0000.0001) %MON dynstat_wvel_del2            =   1.0537629640181E-13
(PID.TID 0000.0001) %MON dynstat_theta_max            =   2.0000000000000E+01
(PID.TID 0000.0001) %MON dynstat_theta_min            =   2.0000000000000E+01
(PID.TID 0000.0001) %MON dynstat_theta_mean           =   1.9999999999999E+01
(PID.TID 0000.0001) %MON dynstat_theta_sd             =   1.1972645097557E-12
(PID.TID 0000.0001) %MON dynstat_theta_del2           =   0.0000000000000E+00
(PID.TID 0000.0001) %MON dynstat_salt_max             =   3.0000000000000E+01
(PID.TID 0000.0001) %MON dynstat_salt_min             =   3.0000000000000E+01
(PID.TID 0000.0001) %MON dynstat_salt_mean            =   2.9999999999998E+01
(PID.TID 0000.0001) %MON dynstat_salt_sd              =   2.1529444893531E-12
(PID.TID 0000.0001) %MON dynstat_salt_del2            =   0.0000000000000E+00
(PID.TID 0000.0001) %MON trAdv_CFL_u_max              =   1.0955881780343E-02
(PID.TID 0000.0001) %MON trAdv_CFL_v_max              =   7.8636932557772E-03
(PID.TID 0000.0001) %MON trAdv_CFL_w_max              =   9.8602734157640E-09
(PID.TID 0000.0001) %MON advcfl_uvel_max              =   1.0959924783840E-02
(PID.TID 0000.0001) %MON advcfl_vvel_max              =   7.8709207078413E-03
(PID.TID 0000.0001) %MON advcfl_wvel_max              =   1.8687649149075E-08
(PID.TID 0000.0001) %MON advcfl_W_hf_max              =   0.0000000000000E+00
(PID.TID 0000.0001) %MON pe_b_mean                    =   1.6837693745485E-06
(PID.TID 0000.0001) %MON ke_max                       =   1.0427966062851E-03
(PID.TID 0000.0001) %MON ke_mean                      =   2.3514069674415E-04
(PID.TID 0000.0001) %MON ke_vol                       =   7.2529629296391E+15
(PID.TID 0000.0001) %MON vort_r_min                   =  -1.5656598560236E-06
(PID.TID 0000.0001) %MON vort_r_max                   =   1.8151383298918E-06
(PID.TID 0000.0001) %MON vort_a_mean                  =   1.0615000000000E-04
(PID.TID 0000.0001) %MON vort_a_sd                    =   3.5738423024271E-06
(PID.TID 0000.0001) %MON vort_p_mean                  =   1.1210870169429E-04
(PID.TID 0000.0001) %MON vort_p_sd                    =   2.1054689816310E-05
(PID.TID 0000.0001) %MON surfExpan_theta_mean         =   7.4363123013872E-20
(PID.TID 0000.0001) %MON surfExpan_salt_mean          =   1.1151188373776E-19
(PID.TID 0000.0001) // =======================================================
(PID.TID 0000.0001) // End MONITOR dynamic field statistics
(PID.TID 0000.0001) // =======================================================
 cg2d: Sum(rhs),rhsMax =   5.23157344195783E-05  5.33587543482235E-03
 cg2d: Sum(rhs),rhsMax =   5.23135783456737E-05  5.33988404717721E-03
 cg2d: Sum(rhs),rhsMax =   5.23114206288349E-05  5.34388888332416E-03
 cg2d: Sum(rhs),rhsMax =   5.23092385439883E-05  5.34788992368461E-03
 cg2d: Sum(rhs),rhsMax =   5.23070197237576E-05  5.35188715187227E-03
 cg2d: Sum(rhs),rhsMax =   5.23047962740229E-05  5.35588054836321E-03
 cg2d: Sum(rhs),rhsMax =   5.23025624601179E-05  5.35987009685952E-03
 cg2d: Sum(rhs),rhsMax =   5.23002811064568E-05  5.36385577789477E-03
 cg2d: Sum(rhs),rhsMax =   5.22979673308210E-05  5.36783757525173E-03
 cg2d: Sum(rhs),rhsMax =   5.22956164998742E-05  5.37181546952560E-03
 cg2d: Sum(rhs),rhsMax =   5.22932634542121E-05  5.37578944458020E-03
 cg2d: Sum(rhs),rhsMax =   5.22908766708109E-05  5.37975948107610E-03
 cg2d: Sum(rhs),rhsMax =   5.22884766257546E-05  5.38372556295262E-03
 cg2d: Sum(rhs),rhsMax =   5.22860430333730E-05  5.38768767093851E-03
 cg2d: Sum(rhs),rhsMax =   5.22835695568203E-05  5.39164578904826E-03
 cg2d: Sum(rhs),rhsMax =   5.22810789704054E-05  5.39559989808169E-03
 cg2d: Sum(rhs),rhsMax =   5.22785844249260E-05  5.39954998212541E-03
 cg2d: Sum(rhs),rhsMax =   5.22760537154306E-05  5.40349602205203E-03
 cg2d: Sum(rhs),rhsMax =   5.22734909020663E-05  5.40743800202623E-03
 cg2d: Sum(rhs),rhsMax =   5.22709073146932E-05  5.41137590298738E-03
 cg2d: Sum(rhs),rhsMax =   5.22682969543099E-05  5.41530970917130E-03
 cg2d: Sum(rhs),rhsMax =   5.22656784934650E-05  5.41923940160158E-03
 cg2d: Sum(rhs),rhsMax =   5.22630342218582E-05  5.42316496457576E-03
 cg2d: Sum(rhs),rhsMax =   5.22603508541233E-05  5.42708637920093E-03
 cg2d: Sum(rhs),rhsMax =   5.22576401481552E-05  5.43100362984045E-03
 cg2d: Sum(rhs),rhsMax =   5.22549142097247E-05  5.43491669768638E-03
 cg2d: Sum(rhs),rhsMax =   5.22521707302998E-05  5.43882556715878E-03
 cg2d: Sum(rhs),rhsMax =   5.22494110039028E-05  5.44273021954701E-03
 cg2d: Sum(rhs),rhsMax =   5.22466096922286E-05  5.44663063932476E-03
 cg2d: Sum(rhs),rhsMax =   5.22437985681753E-05  5.45052680787381E-03
 cg2d: Sum(rhs),rhsMax =   5.22409608822140E-05  5.45441870972670E-03
 cg2d: Sum(rhs),rhsMax =   5.22381043613435E-05  5.45830632636019E-03
 cg2d: Sum(rhs),rhsMax =   5.22352249812071E-05  5.46218964235638E-03
 cg2d: Sum(rhs),rhsMax =   5.22323268928804E-05  5.46606863929632E-03
 cg2d: Sum(rhs),rhsMax =   5.22293949178856E-05  5.46994330181027E-03
 cg2d: Sum(rhs),rhsMax =   5.22264321353319E-05  5.47381361158084E-03
 cg2d: Sum(rhs),rhsMax =   5.22234531227114E-05  5.47767955329032E-03
 cg2d: Sum(rhs),rhsMax =   5.22241714438950E-05  5.48154111164728E-03
 cg2d: Sum(rhs),rhsMax =   5.22290565267855E-05  5.48539826504573E-03
 cg2d: Sum(rhs),rhsMax =   5.22339010607472E-05  5.48925100031943E-03
 cg2d: Sum(rhs),rhsMax =   5.22387226282648E-05  5.49309929846943E-03
 cg2d: Sum(rhs),rhsMax =   5.22434748266035E-05  5.49694314620924E-03
 cg2d: Sum(rhs),rhsMax =   5.22481764199037E-05  5.50078252358563E-03
 cg2d: Sum(rhs),rhsMax =   5.22528496296038E-05  5.50461741725009E-03
 cg2d: Sum(rhs),rhsMax =   5.22574633988962E-05  5.50844780766209E-03
 cg2d: Sum(rhs),rhsMax =   5.22620416976487E-05  5.51227368115709E-03
 cg2d: Sum(rhs),rhsMax =   5.22665728787692E-05  5.51609501877847E-03
 cg2d: Sum(rhs),rhsMax =   5.22710531162304E-05  5.51991180661651E-03
 cg2d: Sum(rhs),rhsMax =   5.22754830062624E-05  5.52372402595476E-03
 cg2d: Sum(rhs),rhsMax =   5.22798736126612E-05  5.52753166291849E-03
 cg2d: Sum(rhs),rhsMax =   5.22842219579524E-05  5.53133469886917E-03
 cg2d: Sum(rhs),rhsMax =   5.22885331334952E-05  5.53513311994133E-03
 cg2d: Sum(rhs),rhsMax =   5.22927628125090E-05  5.53892690775904E-03
 cg2d: Sum(rhs),rhsMax =   5.22969951359160E-05  5.54271604817222E-03
 cg2d: Sum(rhs),rhsMax =   5.23011372009874E-05  5.54650052341059E-03
 cg2d: Sum(rhs),rhsMax =   5.23052743697233E-05  5.55028031872133E-03
 cg2d: Sum(rhs),rhsMax =   5.23090893528820E-05  5.55408045016228E-03
 cg2d: Sum(rhs),rhsMax =   5.23126113182186E-05  5.55790519817217E-03
 cg2d: Sum(rhs),rhsMax =   5.23160947542191E-05  5.56172528954110E-03
 cg2d: Sum(rhs),rhsMax =   5.23195210218922E-05  5.56554071067059E-03
 cg2d: Sum(rhs),rhsMax =   5.23229106956238E-05  5.56935144312856E-03
 cg2d: Sum(rhs),rhsMax =   5.23262588242355E-05  5.57315747304112E-03
 cg2d: Sum(rhs),rhsMax =   5.23295736866498E-05  5.57695878219875E-03
 cg2d: Sum(rhs),rhsMax =   5.23328336141786E-05  5.58075535684446E-03
 cg2d: Sum(rhs),rhsMax =   5.23360609395824E-05  5.58454717871521E-03
 cg2d: Sum(rhs),rhsMax =   5.23392451058506E-05  5.58833423429165E-03
 cg2d: Sum(rhs),rhsMax =   5.23423899067401E-05  5.59211650524513E-03
 cg2d: Sum(rhs),rhsMax =   5.23454758206557E-05  5.59589397823683E-03
 cg2d: Sum(rhs),rhsMax =   5.23485172224112E-05  5.59966663498502E-03
 cg2d: Sum(rhs),rhsMax =   5.23515306377856E-05  5.60343446220166E-03
 cg2d: Sum(rhs),rhsMax =   5.23545029834922E-05  5.60719744177515E-03
 cg2d: Sum(rhs),rhsMax =   5.23574240450592E-05  5.61095556040113E-03
(PID.TID 0000.0001)      cg2d_init_res =   1.75149943019972E-02
(PID.TID 0000.0001)      cg2d_iters(min,last) =      -1     401
(PID.TID 0000.0001)      cg2d_last_res =   9.59382766865709E-08
(PID.TID 0000.0001) // =======================================================
(PID.TID 0000.0001) // Begin MONITOR dynamic field statistics
(PID.TID 0000.0001) // =======================================================
(PID.TID 0000.0001) %MON time_tsnumber                =                  2952
(PID.TID 0000.0001) %MON time_secondsf                =   3.5424000000000E+06
(PID.TID 0000.0001) %MON dynstat_eta_max              =   5.7252001776151E-02
(PID.TID 0000.0001) %MON dynstat_eta_min              =  -9.8786711938506E-02
(PID.TID 0000.0001) %MON dynstat_eta_mean             =  -1.3990248927360E-09
(PID.TID 0000.0001) %MON dynstat_eta_sd               =   4.1457197645005E-02
(PID.TID 0000.0001) %MON dynstat_eta_del2             =   2.3828614322937E-07
(PID.TID 0000.0001) %MON dynstat_uvel_max             =   3.5170374173418E-02
(PID.TID 0000.0001) %MON dynstat_uvel_min             =  -4.6877484657630E-02
(PID.TID 0000.0001) %MON dynstat_uvel_mean            =  -1.5301080081299E-07
(PID.TID 0000.0001) %MON dynstat_uvel_sd              =   1.7014026009302E-02
(PID.TID 0000.0001) %MON dynstat_uvel_del2            =   5.1652087184999E-07
(PID.TID 0000.0001) %MON dynstat_vvel_max             =   3.4750313751747E-02
(PID.TID 0000.0001) %MON dynstat_vvel_min             =  -3.0286247225853E-02
(PID.TID 0000.0001) %MON dynstat_vvel_mean            =  -3.5023282230560E-07
(PID.TID 0000.0001) %MON dynstat_vvel_sd              =   1.4284063550417E-02
(PID.TID 0000.0001) %MON dynstat_vvel_del2            =   6.6681154987102E-07
(PID.TID 0000.0001) %MON dynstat_wvel_max             =   3.7523615020327E-08
(PID.TID 0000.0001) %MON dynstat_wvel_min             =  -2.5707463462895E-08
(PID.TID 0000.0001) %MON dynstat_wvel_mean            =  -2.3951834683996E-21
(PID.TID 0000.0001) %MON dynstat_wvel_sd              =   1.2821261429490E-08
(PID.TID 0000.0001) %MON dynstat_wvel_del2            =   1.0631317465981E-13
(PID.TID 0000.0001) %MON dynstat_theta_max            =   2.0000000000000E+01
(PID.TID 0000.0001) %MON dynstat_theta_min            =   2.0000000000000E+01
(PID.TID 0000.0001) %MON dynstat_theta_mean           =   1.9999999999999E+01
(PID.TID 0000.0001) %MON dynstat_theta_sd             =   1.1972645097557E-12
(PID.TID 0000.0001) %MON dynstat_theta_del2           =   0.0000000000000E+00
(PID.TID 0000.0001) %MON dynstat_salt_max             =   3.0000000000000E+01
(PID.TID 0000.0001) %MON dynstat_salt_min             =   3.0000000000000E+01
(PID.TID 0000.0001) %MON dynstat_salt_mean            =   2.9999999999998E+01
(PID.TID 0000.0001) %MON dynstat_salt_sd              =   2.1529444893531E-12
(PID.TID 0000.0001) %MON dynstat_salt_del2            =   0.0000000000000E+00
(PID.TID 0000.0001) %MON trAdv_CFL_u_max              =   1.1246573737726E-02
(PID.TID 0000.0001) %MON trAdv_CFL_v_max              =   8.3328839690818E-03
(PID.TID 0000.0001) %MON trAdv_CFL_w_max              =   9.4867823192569E-09
(PID.TID 0000.0001) %MON advcfl_uvel_max              =   1.1250596317831E-02
(PID.TID 0000.0001) %MON advcfl_vvel_max              =   8.3400753004193E-03
(PID.TID 0000.0001) %MON advcfl_wvel_max              =   1.8011335209757E-08
(PID.TID 0000.0001) %MON advcfl_W_hf_max              =   0.0000000000000E+00
(PID.TID 0000.0001) %MON pe_b_mean                    =   1.7584647256145E-06
(PID.TID 0000.0001) %MON ke_max                       =   1.0987997647621E-03
(PID.TID 0000.0001) %MON ke_mean                      =   2.4564503469445E-04
(PID.TID 0000.0001) %MON ke_vol                       =   7.2529629296391E+15
(PID.TID 0000.0001) %MON vort_r_min                   =  -1.5994057713755E-06
(PID.TID 0000.0001) %MON vort_r_max                   =   1.9136045006911E-06
(PID.TID 0000.0001) %MON vort_a_mean                  =   1.0615000000000E-04
(PID.TID 0000.0001) %MON vort_a_sd                    =   3.5742908948151E-06
(PID.TID 0000.0001) %MON vort_p_mean                  =   1.1210870169429E-04
(PID.TID 0000.0001) %MON vort_p_sd                    =   2.1054818174372E-05
(PID.TID 0000.0001) %MON surfExpan_theta_mean         =  -4.7841501326256E-20
(PID.TID 0000.0001) %MON surfExpan_salt_mean          =  -7.1987048192071E-20
(PID.TID 0000.0001) // =======================================================
(PID.TID 0000.0001) // End MONITOR dynamic field statistics
(PID.TID 0000.0001) // =======================================================
 cg2d: Sum(rhs),rhsMax =   5.23602929043170E-05  5.61470880010976E-03
 cg2d: Sum(rhs),rhsMax =   5.23631355610364E-05  5.61845714770948E-03
 cg2d: Sum(rhs),rhsMax =   5.23659361609086E-05  5.62220058512984E-03
 cg2d: Sum(rhs),rhsMax =   5.23686864974765E-05  5.62593909958060E-03
 cg2d: Sum(rhs),rhsMax =   5.23714105235806E-05  5.62967267259202E-03
 cg2d: Sum(rhs),rhsMax =   5.23741276163758E-05  5.63340129201810E-03
 cg2d: Sum(rhs),rhsMax =   5.23767560775853E-05  5.63712493890258E-03
 cg2d: Sum(rhs),rhsMax =   5.23793513713467E-05  5.64084360169871E-03
 cg2d: Sum(rhs),rhsMax =   5.23819170023769E-05  5.64455726113801E-03
 cg2d: Sum(rhs),rhsMax =   5.23844317345875E-05  5.64826590601975E-03
 cg2d: Sum(rhs),rhsMax =   5.23868948751081E-05  5.65196951704502E-03
 cg2d: Sum(rhs),rhsMax =   5.23893486378588E-05  5.65566808309813E-03
 cg2d: Sum(rhs),rhsMax =   5.23917773098885E-05  5.65936158505340E-03
 cg2d: Sum(rhs),rhsMax =   5.23941337752822E-05  5.66305001172502E-03
 cg2d: Sum(rhs),rhsMax =   5.23964706706820E-05  5.66673334426425E-03
 cg2d: Sum(rhs),rhsMax =   5.23987770799773E-05  5.67041157135857E-03
 cg2d: Sum(rhs),rhsMax =   5.24010384197277E-05  5.67408467444647E-03
 cg2d: Sum(rhs),rhsMax =   5.24032633990351E-05  5.67775264211478E-03
 cg2d: Sum(rhs),rhsMax =   5.24054505820094E-05  5.68141545605771E-03
 cg2d: Sum(rhs),rhsMax =   5.24076074018723E-05  5.68507310478045E-03
 cg2d: Sum(rhs),rhsMax =   5.24097063474267E-05  5.68872557022348E-03
 cg2d: Sum(rhs),rhsMax =   5.24117899964360E-05  5.69237284081997E-03
 cg2d: Sum(rhs),rhsMax =   5.24138281446609E-05  5.69601489876572E-03
 cg2d: Sum(rhs),rhsMax =   5.24158185533349E-05  5.69965173236918E-03
 cg2d: Sum(rhs),rhsMax =   5.24177915986399E-05  5.70328332415987E-03
 cg2d: Sum(rhs),rhsMax =   5.24197284076251E-05  5.70690966224253E-03
 cg2d: Sum(rhs),rhsMax =   5.24216444008233E-05  5.71053072954904E-03
 cg2d: Sum(rhs),rhsMax =   5.24235057317941E-05  5.71414651392421E-03
 cg2d: Sum(rhs),rhsMax =   5.24253568057282E-05  5.71775699874275E-03
 cg2d: Sum(rhs),rhsMax =   5.24271512293457E-05  5.72136217158852E-03
 cg2d: Sum(rhs),rhsMax =   5.24289021293603E-05  5.72496201623687E-03
 cg2d: Sum(rhs),rhsMax =   5.24306466055483E-05  5.72855652009655E-03
 cg2d: Sum(rhs),rhsMax =   5.24323662247910E-05  5.73214566722191E-03
 cg2d: Sum(rhs),rhsMax =   5.24340574705324E-05  5.73572944499985E-03
 cg2d: Sum(rhs),rhsMax =   5.24357070161926E-05  5.73930783760521E-03
 cg2d: Sum(rhs),rhsMax =   5.24451246308614E-05  5.74288083060378E-03
 cg2d: Sum(rhs),rhsMax =   5.24544900972300E-05  5.74644841237736E-03
 cg2d: Sum(rhs),rhsMax =   5.24637846346663E-05  5.75001056816873E-03
 cg2d: Sum(rhs),rhsMax =   5.24730160228186E-05  5.75356728227492E-03
 cg2d: Sum(rhs),rhsMax =   5.24822003795429E-05  5.75711854268727E-03
 cg2d: Sum(rhs),rhsMax =   5.24913424240911E-05  5.76066433342683E-03
 cg2d: Sum(rhs),rhsMax =   5.25004230309480E-05  5.76420464271262E-03
 cg2d: Sum(rhs),rhsMax =   5.25094571842300E-05  5.76773945452868E-03
 cg2d: Sum(rhs),rhsMax =   5.25182168584007E-05  5.77129127521766E-03
 cg2d: Sum(rhs),rhsMax =   5.25266347073297E-05  5.77487242605487E-03
 cg2d: Sum(rhs),rhsMax =   5.25349664729451E-05  5.77844810372824E-03
 cg2d: Sum(rhs),rhsMax =   5.25432436817454E-05  5.78201829066808E-03
 cg2d: Sum(rhs),rhsMax =   5.25515009478336E-05  5.78558297659940E-03
 cg2d: Sum(rhs),rhsMax =   5.25597007940646E-05  5.78914214401782E-03
 cg2d: Sum(rhs),rhsMax =   5.25678418306870E-05  5.79269578282777E-03
 cg2d: Sum(rhs),rhsMax =   5.25759617453078E-05  5.79624387543109E-03
 cg2d: Sum(rhs),rhsMax =   5.25840093153681E-05  5.79978641208601E-03
 cg2d: Sum(rhs),rhsMax =   5.25920113398066E-05  5.80332337493658E-03
 cg2d: Sum(rhs),rhsMax =   5.25999564782835E-05  5.80685475472843E-03
 cg2d: Sum(rhs),rhsMax =   5.26078808996910E-05  5.81038053326702E-03
 cg2d: Sum(rhs),rhsMax =   5.26157550415529E-05  5.81390070182272E-03
 cg2d: Sum(rhs),rhsMax =   5.26235825087920E-05  5.81741524187815E-03
 cg2d: Sum(rhs),rhsMax =   5.26313726094672E-05  5.82092414515566E-03
 cg2d: Sum(rhs),rhsMax =   5.26391108516977E-05  5.82442739293122E-03
 cg2d: Sum(rhs),rhsMax =   5.26467975540356E-05  5.82792497724840E-03
 cg2d: Sum(rhs),rhsMax =   5.26544600716994E-05  5.83141687930564E-03
 cg2d: Sum(rhs),rhsMax =   5.26620629988549E-05  5.83490309133304E-03
 cg2d: Sum(rhs),rhsMax =   5.26696342404552E-05  5.83838359459390E-03
 cg2d: Sum(rhs),rhsMax =   5.26771698125708E-05  5.84185838137721E-03
 cg2d: Sum(rhs),rhsMax =   5.26846536735174E-05  5.84532743310303E-03
 cg2d: Sum(rhs),rhsMax =   5.26921000836178E-05  5.84879074205101E-03
 cg2d: Sum(rhs),rhsMax =   5.26995129373410E-05  5.85224828986222E-03
 cg2d: Sum(rhs),rhsMax =   5.27068983882570E-05  5.85570006875646E-03
 cg2d: Sum(rhs),rhsMax =   5.27142452467785E-05  5.85914606062530E-03
 cg2d: Sum(rhs),rhsMax =   5.27215315076303E-05  5.86258625760775E-03
 cg2d: Sum(rhs),rhsMax =   5.27288028785360E-05  5.86602064186586E-03
 cg2d: Sum(rhs),rhsMax =   5.27360278344366E-05  5.86944920544204E-03
(PID.TID 0000.0001)      cg2d_init_res =   1.66719716623736E-02
(PID.TID 0000.0001)      cg2d_iters(min,last) =      -1     399
(PID.TID 0000.0001)      cg2d_last_res =   9.53927165129215E-08
(PID.TID 0000.0001) // =======================================================
(PID.TID 0000.0001) // Begin MONITOR dynamic field statistics
(PID.TID 0000.0001) // =======================================================
(PID.TID 0000.0001) %MON time_tsnumber                =                  3024
(PID.TID 0000.0001) %MON time_secondsf                =   3.6288000000000E+06
(PID.TID 0000.0001) %MON dynstat_eta_max              =   5.8620914455397E-02
(PID.TID 0000.0001) %MON dynstat_eta_min              =  -1.0090214738915E-01
(PID.TID 0000.0001) %MON dynstat_eta_mean             =  -1.4740542766091E-09
(PID.TID 0000.0001) %MON dynstat_eta_sd               =   4.2324453061468E-02
(PID.TID 0000.0001) %MON dynstat_eta_del2             =   2.4435303731307E-07
(PID.TID 0000.0001) %MON dynstat_uvel_max             =   3.5383444472292E-02
(PID.TID 0000.0001) %MON dynstat_uvel_min             =  -4.8078823300337E-02
(PID.TID 0000.0001) %MON dynstat_uvel_mean            =  -1.3273769431987E-07
(PID.TID 0000.0001) %MON dynstat_uvel_sd              =   1.7293862948219E-02
(PID.TID 0000.0001) %MON dynstat_uvel_del2            =   5.2023224912585E-07
(PID.TID 0000.0001) %MON dynstat_vvel_max             =   3.6665805590300E-02
(PID.TID 0000.0001) %MON dynstat_vvel_min             =  -3.1206951727731E-02
(PID.TID 0000.0001) %MON dynstat_vvel_mean            =  -3.0981031642016E-07
(PID.TID 0000.0001) %MON dynstat_vvel_sd              =   1.4692849837209E-02
(PID.TID 0000.0001) %MON dynstat_vvel_del2            =   6.9351103526004E-07
(PID.TID 0000.0001) %MON dynstat_wvel_max             =   3.6116631927434E-08
(PID.TID 0000.0001) %MON dynstat_wvel_min             =  -2.5343700863668E-08
(PID.TID 0000.0001) %MON dynstat_wvel_mean            =  -2.8121748711689E-21
(PID.TID 0000.0001) %MON dynstat_wvel_sd              =   1.2473153569472E-08
(PID.TID 0000.0001) %MON dynstat_wvel_del2            =   1.0682092843156E-13
(PID.TID 0000.0001) %MON dynstat_theta_max            =   2.0000000000000E+01
(PID.TID 0000.0001) %MON dynstat_theta_min            =   2.0000000000000E+01
(PID.TID 0000.0001) %MON dynstat_theta_mean           =   1.9999999999999E+01
(PID.TID 0000.0001) %MON dynstat_theta_sd             =   1.1972645097557E-12
(PID.TID 0000.0001) %MON dynstat_theta_del2           =   0.0000000000000E+00
(PID.TID 0000.0001) %MON dynstat_salt_max             =   3.0000000000000E+01
(PID.TID 0000.0001) %MON dynstat_salt_min             =   3.0000000000000E+01
(PID.TID 0000.0001) %MON dynstat_salt_mean            =   2.9999999999998E+01
(PID.TID 0000.0001) %MON dynstat_salt_sd              =   2.1529444893531E-12
(PID.TID 0000.0001) %MON dynstat_salt_del2            =   0.0000000000000E+00
(PID.TID 0000.0001) %MON trAdv_CFL_u_max              =   1.1534931859860E-02
(PID.TID 0000.0001) %MON trAdv_CFL_v_max              =   8.7927775114682E-03
(PID.TID 0000.0001) %MON trAdv_CFL_w_max              =   9.1090808249386E-09
(PID.TID 0000.0001) %MON advcfl_uvel_max              =   1.1538917592081E-02
(PID.TID 0000.0001) %MON advcfl_vvel_max              =   8.7997933416719E-03
(PID.TID 0000.0001) %MON advcfl_wvel_max              =   1.7335983325168E-08
(PID.TID 0000.0001) %MON advcfl_W_hf_max              =   0.0000000000000E+00
(PID.TID 0000.0001) %MON pe_b_mean                    =   1.8328059501673E-06
(PID.TID 0000.0001) %MON ke_max                       =   1.1558102652860E-03
(PID.TID 0000.0001) %MON ke_mean                      =   2.5631975614718E-04
(PID.TID 0000.0001) %MON ke_vol                       =   7.2529629296391E+15
(PID.TID 0000.0001) %MON vort_r_min                   =  -1.6320585759790E-06
(PID.TID 0000.0001) %MON vort_r_max                   =   2.0062763154440E-06
(PID.TID 0000.0001) %MON vort_a_mean                  =   1.0615000000000E-04
(PID.TID 0000.0001) %MON vort_a_sd                    =   3.5747485035992E-06
(PID.TID 0000.0001) %MON vort_p_mean                  =   1.1210870169429E-04
(PID.TID 0000.0001) %MON vort_p_sd                    =   2.1054962109348E-05
(PID.TID 0000.0001) %MON surfExpan_theta_mean         =  -5.6707688243692E-20
(PID.TID 0000.0001) %MON surfExpan_salt_mean          =  -8.5229011736000E-20
(PID.TID 0000.0001) // =======================================================
(PID.TID 0000.0001) // End MONITOR dynamic field statistics
(PID.TID 0000.0001) // =======================================================
 cg2d: Sum(rhs),rhsMax =   5.27432376388270E-05  5.87287193077924E-03
 cg2d: Sum(rhs),rhsMax =   5.27504227817361E-05  5.87628880981616E-03
 cg2d: Sum(rhs),rhsMax =   5.27575642787130E-05  5.87969982529080E-03
 cg2d: Sum(rhs),rhsMax =   5.27646709910624E-05  5.88310496900987E-03
 cg2d: Sum(rhs),rhsMax =   5.27717580793694E-05  5.88650422403294E-03
 cg2d: Sum(rhs),rhsMax =   5.27788309459388E-05  5.88989758202632E-03
 cg2d: Sum(rhs),rhsMax =   5.27858462854322E-05  5.89328502637375E-03
 cg2d: Sum(rhs),rhsMax =   5.27928230457644E-05  5.89666654860017E-03
 cg2d: Sum(rhs),rhsMax =   5.27997870702985E-05  5.90004213240014E-03
 cg2d: Sum(rhs),rhsMax =   5.28067505161858E-05  5.90341176919084E-03
 cg2d: Sum(rhs),rhsMax =   5.28136641331312E-05  5.90677544293520E-03
 cg2d: Sum(rhs),rhsMax =   5.28205554808190E-05  5.91013314499089E-03
 cg2d: Sum(rhs),rhsMax =   5.28274121707914E-05  5.91348485953489E-03
 cg2d: Sum(rhs),rhsMax =   5.28342548778280E-05  5.91683057792757E-03
 cg2d: Sum(rhs),rhsMax =   5.28410788982075E-05  5.92017028449314E-03
 cg2d: Sum(rhs),rhsMax =   5.28478983668865E-05  5.92350397066397E-03
 cg2d: Sum(rhs),rhsMax =   5.28546988171256E-05  5.92683162084196E-03
 cg2d: Sum(rhs),rhsMax =   5.28614576205627E-05  5.93015322659455E-03
 cg2d: Sum(rhs),rhsMax =   5.28682081939406E-05  5.93346877235646E-03
 cg2d: Sum(rhs),rhsMax =   5.28749387684575E-05  5.93677824986268E-03
 cg2d: Sum(rhs),rhsMax =   5.28816678434277E-05  5.94008164354923E-03
 cg2d: Sum(rhs),rhsMax =   5.28883760950132E-05  5.94337894533979E-03
 cg2d: Sum(rhs),rhsMax =   5.28950570284692E-05  5.94667013966928E-03
 cg2d: Sum(rhs),rhsMax =   5.29017353195836E-05  5.94995521865580E-03
 cg2d: Sum(rhs),rhsMax =   5.29083946087698E-05  5.95323416671618E-03
 cg2d: Sum(rhs),rhsMax =   5.29150359203360E-05  5.95650697616634E-03
 cg2d: Sum(rhs),rhsMax =   5.29216860428543E-05  5.95977363141356E-03
 cg2d: Sum(rhs),rhsMax =   5.29283080690865E-05  5.96303412497692E-03
 cg2d: Sum(rhs),rhsMax =   5.29349031761767E-05  5.96629254218987E-03
 cg2d: Sum(rhs),rhsMax =   5.29409762305150E-05  5.96960056331900E-03
 cg2d: Sum(rhs),rhsMax =   5.29470602913991E-05  5.97290243649021E-03
 cg2d: Sum(rhs),rhsMax =   5.29531431035276E-05  5.97619815497254E-03
 cg2d: Sum(rhs),rhsMax =   5.29591829862220E-05  5.97948770221021E-03
 cg2d: Sum(rhs),rhsMax =   5.29652309247170E-05  5.98277107172042E-03
 cg2d: Sum(rhs),rhsMax =   5.29713057690891E-05  5.98604824688303E-03
 cg2d: Sum(rhs),rhsMax =   5.29773552065322E-05  5.98931922146242E-03
 cg2d: Sum(rhs),rhsMax =   5.29834214248182E-05  5.99258397878420E-03
 cg2d: Sum(rhs),rhsMax =   5.29932996324449E-05  5.99584251692362E-03
 cg2d: Sum(rhs),rhsMax =   5.30031814297757E-05  5.99909481097894E-03
 cg2d: Sum(rhs),rhsMax =   5.30130633764992E-05  6.00234085949435E-03
 cg2d: Sum(rhs),rhsMax =   5.30229052088391E-05  6.00558064574778E-03
 cg2d: Sum(rhs),rhsMax =   5.30327732537003E-05  6.00881416317680E-03
 cg2d: Sum(rhs),rhsMax =   5.30426359362342E-05  6.01204139683686E-03
 cg2d: Sum(rhs),rhsMax =   5.30524909088364E-05  6.01526233902046E-03
 cg2d: Sum(rhs),rhsMax =   5.30623548852870E-05  6.01847697540959E-03
 cg2d: Sum(rhs),rhsMax =   5.30721990395523E-05  6.02168529822160E-03
 cg2d: Sum(rhs),rhsMax =   5.30820244308066E-05  6.02488729319824E-03
 cg2d: Sum(rhs),rhsMax =   5.30918958809388E-05  6.02808295391276E-03
 cg2d: Sum(rhs),rhsMax =   5.31056133561442E-05  6.03127226287053E-03
 cg2d: Sum(rhs),rhsMax =   5.31193359736136E-05  6.03445521426270E-03
 cg2d: Sum(rhs),rhsMax =   5.31330453485114E-05  6.03763179981880E-03
 cg2d: Sum(rhs),rhsMax =   5.31467546960142E-05  6.04080200178506E-03
 cg2d: Sum(rhs),rhsMax =   5.31604720553709E-05  6.04396581686320E-03
 cg2d: Sum(rhs),rhsMax =   5.31742051451890E-05  6.04712322793272E-03
 cg2d: Sum(rhs),rhsMax =   5.31879226289562E-05  6.05027423043830E-03
 cg2d: Sum(rhs),rhsMax =   5.32016563264820E-05  6.05341880739803E-03
 cg2d: Sum(rhs),rhsMax =   5.32153801581268E-05  6.05655695482157E-03
 cg2d: Sum(rhs),rhsMax =   5.32291172046594E-05  6.05968865673318E-03
 cg2d: Sum(rhs),rhsMax =   5.32428501559179E-05  6.06281390852402E-03
 cg2d: Sum(rhs),rhsMax =   5.32566126300863E-05  6.06593269247670E-03
 cg2d: Sum(rhs),rhsMax =   5.32703708845541E-05  6.06904500658295E-03
 cg2d: Sum(rhs),rhsMax =   5.32841297289454E-05  6.07215083257058E-03
 cg2d: Sum(rhs),rhsMax =   5.32979265914761E-05  6.07525016860110E-03
 cg2d: Sum(rhs),rhsMax =   5.33117369449685E-05  6.07834299541411E-03
 cg2d: Sum(rhs),rhsMax =   5.33255482697278E-05  6.08142931256842E-03
 cg2d: Sum(rhs),rhsMax =   5.33393601676106E-05  6.08450910023065E-03
 cg2d: Sum(rhs),rhsMax =   5.33531917455062E-05  6.08758235841933E-03
 cg2d: Sum(rhs),rhsMax =   5.33670527431120E-05  6.09064906713427E-03
 cg2d: Sum(rhs),rhsMax =   5.33809261469094E-05  6.09370922651152E-03
 cg2d: Sum(rhs),rhsMax =   5.33948221992865E-05  6.09676281685358E-03
 cg2d: Sum(rhs),rhsMax =   5.34087426213986E-05  6.09980983804153E-03
 cg2d: Sum(rhs),rhsMax =   5.34226706121493E-05  6.10285027088231E-03
(PID.TID 0000.0001)      cg2d_init_res =   1.58932522931465E-02
(PID.TID 0000.0001)      cg2d_iters(min,last) =      -1     397
(PID.TID 0000.0001)      cg2d_last_res =   9.88637214060021E-08
(PID.TID 0000.0001) // =======================================================
(PID.TID 0000.0001) // Begin MONITOR dynamic field statistics
(PID.TID 0000.0001) // =======================================================
(PID.TID 0000.0001) %MON time_tsnumber                =                  3096
(PID.TID 0000.0001) %MON time_secondsf                =   3.7152000000000E+06
(PID.TID 0000.0001) %MON dynstat_eta_max              =   6.0672801172115E-02
(PID.TID 0000.0001) %MON dynstat_eta_min              =  -1.0300442355233E-01
(PID.TID 0000.0001) %MON dynstat_eta_mean             =  -1.5526869148725E-09
(PID.TID 0000.0001) %MON dynstat_eta_sd               =   4.3166868587478E-02
(PID.TID 0000.0001) %MON dynstat_eta_del2             =   2.5043284901130E-07
(PID.TID 0000.0001) %MON dynstat_uvel_max             =   3.5676867165922E-02
(PID.TID 0000.0001) %MON dynstat_uvel_min             =  -4.9268130991872E-02
(PID.TID 0000.0001) %MON dynstat_uvel_mean            =  -1.0626376610646E-07
(PID.TID 0000.0001) %MON dynstat_uvel_sd              =   1.7561574881451E-02
(PID.TID 0000.0001) %MON dynstat_uvel_del2            =   5.2426948613267E-07
(PID.TID 0000.0001) %MON dynstat_vvel_max             =   3.8504861995994E-02
(PID.TID 0000.0001) %MON dynstat_vvel_min             =  -3.2113644988048E-02
(PID.TID 0000.0001) %MON dynstat_vvel_mean            =  -2.7384125115409E-07
(PID.TID 0000.0001) %MON dynstat_vvel_sd              =   1.5108095357514E-02
(PID.TID 0000.0001) %MON dynstat_vvel_del2            =   7.1814620394894E-07
(PID.TID 0000.0001) %MON dynstat_wvel_max             =   3.4714435192291E-08
(PID.TID 0000.0001) %MON dynstat_wvel_min             =  -2.4993677704715E-08
(PID.TID 0000.0001) %MON dynstat_wvel_mean            =   4.1299108990570E-21
(PID.TID 0000.0001) %MON dynstat_wvel_sd              =   1.2157023933833E-08
(PID.TID 0000.0001) %MON dynstat_wvel_del2            =   1.0682238596307E-13
(PID.TID 0000.0001) %MON dynstat_theta_max            =   2.0000000000000E+01
(PID.TID 0000.0001) %MON dynstat_theta_min            =   2.0000000000000E+01
(PID.TID 0000.0001) %MON dynstat_theta_mean           =   1.9999999999999E+01
(PID.TID 0000.0001) %MON dynstat_theta_sd             =   1.1972645097557E-12
(PID.TID 0000.0001) %MON dynstat_theta_del2           =   0.0000000000000E+00
(PID.TID 0000.0001) %MON dynstat_salt_max             =   3.0000000000000E+01
(PID.TID 0000.0001) %MON dynstat_salt_min             =   3.0000000000000E+01
(PID.TID 0000.0001) %MON dynstat_salt_mean            =   2.9999999999998E+01
(PID.TID 0000.0001) %MON dynstat_salt_sd              =   2.1529444893531E-12
(PID.TID 0000.0001) %MON dynstat_salt_del2            =   0.0000000000000E+00
(PID.TID 0000.0001) %MON trAdv_CFL_u_max              =   1.1820408818235E-02
(PID.TID 0000.0001) %MON trAdv_CFL_v_max              =   9.2344547651657E-03
(PID.TID 0000.0001) %MON trAdv_CFL_w_max              =   8.7358084742159E-09
(PID.TID 0000.0001) %MON advcfl_uvel_max              =   1.1824351438049E-02
(PID.TID 0000.0001) %MON advcfl_vvel_max              =   9.2411668790385E-03
(PID.TID 0000.0001) %MON advcfl_wvel_max              =   1.6662928892300E-08
(PID.TID 0000.0001) %MON advcfl_W_hf_max              =   0.0000000000000E+00
(PID.TID 0000.0001) %MON pe_b_mean                    =   1.9064914731671E-06
(PID.TID 0000.0001) %MON ke_max                       =   1.2137528057703E-03
(PID.TID 0000.0001) %MON ke_mean                      =   2.6712386563660E-04
(PID.TID 0000.0001) %MON ke_vol                       =   7.2529629296391E+15
(PID.TID 0000.0001) %MON vort_r_min                   =  -1.6635650054184E-06
(PID.TID 0000.0001) %MON vort_r_max                   =   2.0915481430973E-06
(PID.TID 0000.0001) %MON vort_a_mean                  =   1.0615000000000E-04
(PID.TID 0000.0001) %MON vort_a_sd                    =   3.5752124100426E-06
(PID.TID 0000.0001) %MON vort_p_mean                  =   1.1210870169429E-04
(PID.TID 0000.0001) %MON vort_p_sd                    =   2.1055116976996E-05
(PID.TID 0000.0001) %MON surfExpan_theta_mean         =   8.2429560713143E-20
(PID.TID 0000.0001) %MON surfExpan_salt_mean          =   1.2372512192142E-19
(PID.TID 0000.0001) // =======================================================
(PID.TID 0000.0001) // End MONITOR dynamic field statistics
(PID.TID 0000.0001) // =======================================================
 cg2d: Sum(rhs),rhsMax =   5.34366381495214E-05  6.10588411497594E-03
 cg2d: Sum(rhs),rhsMax =   5.34506333692609E-05  6.10891135151977E-03
 cg2d: Sum(rhs),rhsMax =   5.34646275443493E-05  6.11193198001742E-03
 cg2d: Sum(rhs),rhsMax =   5.34786614986370E-05  6.11494598188580E-03
 cg2d: Sum(rhs),rhsMax =   5.34927297483193E-05  6.11795335661759E-03
 cg2d: Sum(rhs),rhsMax =   5.35068100923308E-05  6.12095408583828E-03
 cg2d: Sum(rhs),rhsMax =   5.35209185771794E-05  6.12394816900128E-03
 cg2d: Sum(rhs),rhsMax =   5.35350727026855E-05  6.12693558798475E-03
 cg2d: Sum(rhs),rhsMax =   5.35492551707686E-05  6.12991634217127E-03
 cg2d: Sum(rhs),rhsMax =   5.35634601648727E-05  6.13289041370155E-03
 cg2d: Sum(rhs),rhsMax =   5.35776928085077E-05  6.13585780189406E-03
 cg2d: Sum(rhs),rhsMax =   5.35919688778402E-05  6.13881848913546E-03
 cg2d: Sum(rhs),rhsMax =   5.36062283872638E-05  6.14177720383174E-03
 cg2d: Sum(rhs),rhsMax =   5.36200314129656E-05  6.14478647691847E-03
 cg2d: Sum(rhs),rhsMax =   5.36338696824521E-05  6.14778907141401E-03
 cg2d: Sum(rhs),rhsMax =   5.36477440332128E-05  6.15078497263963E-03
 cg2d: Sum(rhs),rhsMax =   5.36616529063793E-05  6.15377417684490E-03
 cg2d: Sum(rhs),rhsMax =   5.36755956152674E-05  6.15675666943019E-03
 cg2d: Sum(rhs),rhsMax =   5.36895790025235E-05  6.15973244679530E-03
 cg2d: Sum(rhs),rhsMax =   5.37036083791542E-05  6.16270149434110E-03
 cg2d: Sum(rhs),rhsMax =   5.37176819454691E-05  6.16566380870573E-03
 cg2d: Sum(rhs),rhsMax =   5.37318067348419E-05  6.16861937519799E-03
 cg2d: Sum(rhs),rhsMax =   5.37459578817573E-05  6.17156819079475E-03
 cg2d: Sum(rhs),rhsMax =   5.37601614510631E-05  6.17451024061652E-03
 cg2d: Sum(rhs),rhsMax =   5.37744088891404E-05  6.17744552205820E-03
 cg2d: Sum(rhs),rhsMax =   5.37887076435842E-05  6.18037401999477E-03
 cg2d: Sum(rhs),rhsMax =   5.38030542867479E-05  6.18329573225321E-03
 cg2d: Sum(rhs),rhsMax =   5.38174149962426E-05  6.18621064349026E-03
 cg2d: Sum(rhs),rhsMax =   5.38318550251669E-05  6.18911875191921E-03
 cg2d: Sum(rhs),rhsMax =   5.38463427744008E-05  6.19202004203668E-03
 cg2d: Sum(rhs),rhsMax =   5.38608725983228E-05  6.19491451237287E-03
 cg2d: Sum(rhs),rhsMax =   5.38754369152865E-05  6.19780214733677E-03
 cg2d: Sum(rhs),rhsMax =   5.38900704315104E-05  6.20068294570841E-03
 cg2d: Sum(rhs),rhsMax =   5.39047479648577E-05  6.20355689186777E-03
 cg2d: Sum(rhs),rhsMax =   5.39194692880573E-05  6.20642398479668E-03
 cg2d: Sum(rhs),rhsMax =   5.39342525496742E-05  6.20928420888825E-03
 cg2d: Sum(rhs),rhsMax =   5.39490897481735E-05  6.21213756328715E-03
 cg2d: Sum(rhs),rhsMax =   5.39639736354332E-05  6.21498403243329E-03
 cg2d: Sum(rhs),rhsMax =   5.39789161847074E-05  6.21782361561288E-03
 cg2d: Sum(rhs),rhsMax =   5.39939311015536E-05  6.22065629731645E-03
 cg2d: Sum(rhs),rhsMax =   5.40089777383006E-05  6.22348207698288E-03
 cg2d: Sum(rhs),rhsMax =   5.40240851032251E-05  6.22630093913475E-03
 cg2d: Sum(rhs),rhsMax =   5.40392513539866E-05  6.22911288337988E-03
 cg2d: Sum(rhs),rhsMax =   5.40544770543185E-05  6.23191789426492E-03
 cg2d: Sum(rhs),rhsMax =   5.40697695987254E-05  6.23471597157613E-03
 cg2d: Sum(rhs),rhsMax =   5.40850956183475E-05  6.23750709985849E-03
 cg2d: Sum(rhs),rhsMax =   5.41004861158193E-05  6.24029127911232E-03
 cg2d: Sum(rhs),rhsMax =   5.41159402913602E-05  6.24306849385767E-03
 cg2d: Sum(rhs),rhsMax =   5.41314518499706E-05  6.24583874432301E-03
 cg2d: Sum(rhs),rhsMax =   5.41470115749986E-05  6.24860201498318E-03
 cg2d: Sum(rhs),rhsMax =   5.41626740090527E-05  6.25135830631163E-03
 cg2d: Sum(rhs),rhsMax =   5.41783436867851E-05  6.25410760273553E-03
 cg2d: Sum(rhs),rhsMax =   5.41941113307647E-05  6.25684990496684E-03
 cg2d: Sum(rhs),rhsMax =   5.42099278595840E-05  6.25958519739785E-03
 cg2d: Sum(rhs),rhsMax =   5.42258129492876E-05  6.26231348096161E-03
 cg2d: Sum(rhs),rhsMax =   5.42417474256982E-05  6.26503474003171E-03
 cg2d: Sum(rhs),rhsMax =   5.42577580022204E-05  6.26774897574743E-03
 cg2d: Sum(rhs),rhsMax =   5.42738011971477E-05  6.27045617248082E-03
 cg2d: Sum(rhs),rhsMax =   5.42899436263416E-05  6.27315633155352E-03
 cg2d: Sum(rhs),rhsMax =   5.43061254566264E-05  6.27584943737288E-03
 cg2d: Sum(rhs),rhsMax =   5.43223768408079E-05  6.27853549140197E-03
 cg2d: Sum(rhs),rhsMax =   5.43387072608742E-05  6.28121447810609E-03
 cg2d: Sum(rhs),rhsMax =   5.43551033706710E-05  6.28388639908825E-03
 cg2d: Sum(rhs),rhsMax =   5.43715604084887E-05  6.28655123887696E-03
 cg2d: Sum(rhs),rhsMax =   5.43880735385163E-05  6.28920899919436E-03
 cg2d: Sum(rhs),rhsMax =   5.44046682681584E-05  6.29185966465438E-03
 cg2d: Sum(rhs),rhsMax =   5.44213016920368E-05  6.29450323708101E-03
 cg2d: Sum(rhs),rhsMax =   5.44379159990884E-05  6.29715079756752E-03
 cg2d: Sum(rhs),rhsMax =   5.44541475364784E-05  6.29984390234580E-03
 cg2d: Sum(rhs),rhsMax =   5.44704525190082E-05  6.30252992165971E-03
 cg2d: Sum(rhs),rhsMax =   5.44868012899325E-05  6.30520885076223E-03
 cg2d: Sum(rhs),rhsMax =   5.45032297023460E-05  6.30788068075638E-03
(PID.TID 0000.0001)      cg2d_init_res =   1.51757486203809E-02
(PID.TID 0000.0001)      cg2d_iters(min,last) =      -1     397
(PID.TID 0000.0001)      cg2d_last_res =   9.80263111251943E-08
(PID.TID 0000.0001) // =======================================================
(PID.TID 0000.0001) // Begin MONITOR dynamic field statistics
(PID.TID 0000.0001) // =======================================================
(PID.TID 0000.0001) %MON time_tsnumber                =                  3168
(PID.TID 0000.0001) %MON time_secondsf                =   3.8016000000000E+06
(PID.TID 0000.0001) %MON dynstat_eta_max              =   6.2731645906801E-02
(PID.TID 0000.0001) %MON dynstat_eta_min              =  -1.0509119025102E-01
(PID.TID 0000.0001) %MON dynstat_eta_mean             =  -1.6372564588995E-09
(PID.TID 0000.0001) %MON dynstat_eta_sd               =   4.3983569950706E-02
(PID.TID 0000.0001) %MON dynstat_eta_del2             =   2.5649019599743E-07
(PID.TID 0000.0001) %MON dynstat_uvel_max             =   3.6057155100670E-02
(PID.TID 0000.0001) %MON dynstat_uvel_min             =  -5.0444766160667E-02
(PID.TID 0000.0001) %MON dynstat_uvel_mean            =  -7.5603742402153E-08
(PID.TID 0000.0001) %MON dynstat_uvel_sd              =   1.7820535223987E-02
(PID.TID 0000.0001) %MON dynstat_uvel_del2            =   5.2877544009449E-07
(PID.TID 0000.0001) %MON dynstat_vvel_max             =   4.0233854919600E-02
(PID.TID 0000.0001) %MON dynstat_vvel_min             =  -3.3003951317882E-02
(PID.TID 0000.0001) %MON dynstat_vvel_mean            =  -2.4331342793071E-07
(PID.TID 0000.0001) %MON dynstat_vvel_sd              =   1.5523635839614E-02
(PID.TID 0000.0001) %MON dynstat_vvel_del2            =   7.4032983267202E-07
(PID.TID 0000.0001) %MON dynstat_wvel_max             =   3.3285232388880E-08
(PID.TID 0000.0001) %MON dynstat_wvel_min             =  -2.4665463846177E-08
(PID.TID 0000.0001) %MON dynstat_wvel_mean            =   1.7920360871081E-21
(PID.TID 0000.0001) %MON dynstat_wvel_sd              =   1.1881723246738E-08
(PID.TID 0000.0001) %MON dynstat_wvel_del2            =   1.0623977712786E-13
(PID.TID 0000.0001) %MON dynstat_theta_max            =   2.0000000000000E+01
(PID.TID 0000.0001) %MON dynstat_theta_min            =   2.0000000000000E+01
(PID.TID 0000.0001) %MON dynstat_theta_mean           =   1.9999999999999E+01
(PID.TID 0000.0001) %MON dynstat_theta_sd             =   1.1972645097557E-12
(PID.TID 0000.0001) %MON dynstat_theta_del2           =   0.0000000000000E+00
(PID.TID 0000.0001) %MON dynstat_salt_max             =   3.0000000000000E+01
(PID.TID 0000.0001) %MON dynstat_salt_min             =   3.0000000000000E+01
(PID.TID 0000.0001) %MON dynstat_salt_mean            =   2.9999999999998E+01
(PID.TID 0000.0001) %MON dynstat_salt_sd              =   2.1529444893531E-12
(PID.TID 0000.0001) %MON dynstat_salt_del2            =   0.0000000000000E+00
(PID.TID 0000.0001) %MON trAdv_CFL_u_max              =   1.2102844613437E-02
(PID.TID 0000.0001) %MON trAdv_CFL_v_max              =   9.6498296049235E-03
(PID.TID 0000.0001) %MON trAdv_CFL_w_max              =   8.3589602831060E-09
(PID.TID 0000.0001) %MON advcfl_uvel_max              =   1.2106743878560E-02
(PID.TID 0000.0001) %MON advcfl_vvel_max              =   9.6561251807039E-03
(PID.TID 0000.0001) %MON advcfl_wvel_max              =   1.5976911546662E-08
(PID.TID 0000.0001) %MON advcfl_W_hf_max              =   0.0000000000000E+00
(PID.TID 0000.0001) %MON pe_b_mean                    =   1.9793141492222E-06
(PID.TID 0000.0001) %MON ke_max                       =   1.2724092721682E-03
(PID.TID 0000.0001) %MON ke_mean                      =   2.7802023896828E-04
(PID.TID 0000.0001) %MON ke_vol                       =   7.2529629296391E+15
(PID.TID 0000.0001) %MON vort_r_min                   =  -1.6939135251286E-06
(PID.TID 0000.0001) %MON vort_r_max                   =   2.1681531771344E-06
(PID.TID 0000.0001) %MON vort_a_mean                  =   1.0615000000000E-04
(PID.TID 0000.0001) %MON vort_a_sd                    =   3.5756797023231E-06
(PID.TID 0000.0001) %MON vort_p_mean                  =   1.1210870169429E-04
(PID.TID 0000.0001) %MON vort_p_sd                    =   2.1055277835251E-05
(PID.TID 0000.0001) %MON surfExpan_theta_mean         =   3.5372488422593E-20
(PID.TID 0000.0001) %MON surfExpan_salt_mean          =   5.3100682318045E-20
(PID.TID 0000.0001) // =======================================================
(PID.TID 0000.0001) // End MONITOR dynamic field statistics
(PID.TID 0000.0001) // =======================================================
 cg2d: Sum(rhs),rhsMax =   5.45197193224969E-05  6.31054540703699E-03
 cg2d: Sum(rhs),rhsMax =   5.45362826438996E-05  6.31320302076503E-03
 cg2d: Sum(rhs),rhsMax =   5.45529027087571E-05  6.31585351747011E-03
 cg2d: Sum(rhs),rhsMax =   5.45695755258110E-05  6.31849688836949E-03
 cg2d: Sum(rhs),rhsMax =   5.45863147089575E-05  6.32113312914155E-03
 cg2d: Sum(rhs),rhsMax =   5.46031232827456E-05  6.32376223104886E-03
 cg2d: Sum(rhs),rhsMax =   5.46199869135533E-05  6.32638418991224E-03
 cg2d: Sum(rhs),rhsMax =   5.46369317742144E-05  6.32899899705192E-03
 cg2d: Sum(rhs),rhsMax =   5.46539462585113E-05  6.33160664843538E-03
 cg2d: Sum(rhs),rhsMax =   5.46710144219382E-05  6.33420713542542E-03
 cg2d: Sum(rhs),rhsMax =   5.46881496075656E-05  6.33680045414072E-03
 cg2d: Sum(rhs),rhsMax =   5.47053484399353E-05  6.33938659598892E-03
 cg2d: Sum(rhs),rhsMax =   5.47226026052986E-05  6.34196555724009E-03
 cg2d: Sum(rhs),rhsMax =   5.47399250046993E-05  6.34453732934979E-03
 cg2d: Sum(rhs),rhsMax =   5.47573058327299E-05  6.34710190873769E-03
 cg2d: Sum(rhs),rhsMax =   5.47747423881159E-05  6.34965928690048E-03
 cg2d: Sum(rhs),rhsMax =   5.47922449809255E-05  6.35220946040889E-03
 cg2d: Sum(rhs),rhsMax =   5.48098234039786E-05  6.35475242081108E-03
 cg2d: Sum(rhs),rhsMax =   5.48274593542701E-05  6.35728816482149E-03
 cg2d: Sum(rhs),rhsMax =   5.48451367143330E-05  6.35981668404171E-03
 cg2d: Sum(rhs),rhsMax =   5.48628820398412E-05  6.36233797532398E-03
 cg2d: Sum(rhs),rhsMax =   5.48806864288128E-05  6.36485203032696E-03
 cg2d: Sum(rhs),rhsMax =   5.48985390512564E-05  6.36735884604636E-03
 cg2d: Sum(rhs),rhsMax =   5.49164480360619E-05  6.36985841419507E-03
 cg2d: Sum(rhs),rhsMax =   5.49344223920493E-05  6.37235073190389E-03
 cg2d: Sum(rhs),rhsMax =   5.49524272558562E-05  6.37483579094785E-03
 cg2d: Sum(rhs),rhsMax =   5.49705025857905E-05  6.37731358859457E-03
 cg2d: Sum(rhs),rhsMax =   5.49886240806895E-05  6.37978411667453E-03
 cg2d: Sum(rhs),rhsMax =   5.50067832643763E-05  6.38224737259631E-03
 cg2d: Sum(rhs),rhsMax =   5.50250034036929E-05  6.38470334824795E-03
 cg2d: Sum(rhs),rhsMax =   5.50432743476990E-05  6.38715204117121E-03
 cg2d: Sum(rhs),rhsMax =   5.50615836344610E-05  6.38959344331963E-03
 cg2d: Sum(rhs),rhsMax =   5.50799312368531E-05  6.39202755236746E-03
 cg2d: Sum(rhs),rhsMax =   5.50983112706718E-05  6.39445436032276E-03
 cg2d: Sum(rhs),rhsMax =   5.51167501014809E-05  6.39687386500690E-03
 cg2d: Sum(rhs),rhsMax =   5.51352005003564E-05  6.39928605847933E-03
 cg2d: Sum(rhs),rhsMax =   5.51537024721109E-05  6.40169093869737E-03
 cg2d: Sum(rhs),rhsMax =   5.51722261602121E-05  6.40408849778361E-03
 cg2d: Sum(rhs),rhsMax =   5.51907977827816E-05  6.40647873383393E-03
 cg2d: Sum(rhs),rhsMax =   5.52093792243614E-05  6.40886163901766E-03
 cg2d: Sum(rhs),rhsMax =   5.52279811641663E-05  6.41123721157979E-03
 cg2d: Sum(rhs),rhsMax =   5.52466090810885E-05  6.41360544374072E-03
 cg2d: Sum(rhs),rhsMax =   5.52652402183482E-05  6.41596633389059E-03
 cg2d: Sum(rhs),rhsMax =   5.52838902197673E-05  6.41831987429640E-03
 cg2d: Sum(rhs),rhsMax =   5.53025373199317E-05  6.42066606349662E-03
 cg2d: Sum(rhs),rhsMax =   5.53211746096597E-05  6.42300489380981E-03
 cg2d: Sum(rhs),rhsMax =   5.53398163402671E-05  6.42533636391210E-03
 cg2d: Sum(rhs),rhsMax =   5.53584403911068E-05  6.42766046617305E-03
 cg2d: Sum(rhs),rhsMax =   5.53770571537985E-05  6.42997719942671E-03
 cg2d: Sum(rhs),rhsMax =   5.53955588374462E-05  6.43229498372584E-03
 cg2d: Sum(rhs),rhsMax =   5.54135338770920E-05  6.43466210127327E-03
 cg2d: Sum(rhs),rhsMax =   5.54314906358991E-05  6.43702186078389E-03
 cg2d: Sum(rhs),rhsMax =   5.54493907336624E-05  6.43937425358136E-03
 cg2d: Sum(rhs),rhsMax =   5.54713833964326E-05  6.44171927432906E-03
 cg2d: Sum(rhs),rhsMax =   5.54932835933029E-05  6.44405692813469E-03
 cg2d: Sum(rhs),rhsMax =   5.55150836455191E-05  6.44638720055400E-03
 cg2d: Sum(rhs),rhsMax =   5.55366981751623E-05  6.44871009306751E-03
 cg2d: Sum(rhs),rhsMax =   5.55582061711757E-05  6.45102559800595E-03
 cg2d: Sum(rhs),rhsMax =   5.55795167266173E-05  6.45333371506324E-03
 cg2d: Sum(rhs),rhsMax =   5.56006646430037E-05  6.45563443482665E-03
 cg2d: Sum(rhs),rhsMax =   5.56254930944511E-05  6.45792775726104E-03
 cg2d: Sum(rhs),rhsMax =   5.56500054773586E-05  6.46021368142953E-03
 cg2d: Sum(rhs),rhsMax =   5.56742072725445E-05  6.46249219091976E-03
 cg2d: Sum(rhs),rhsMax =   5.56980671636423E-05  6.46476329628328E-03
 cg2d: Sum(rhs),rhsMax =   5.57258387221783E-05  6.46702697994121E-03
 cg2d: Sum(rhs),rhsMax =   5.57530786616846E-05  6.46928325166300E-03
 cg2d: Sum(rhs),rhsMax =   5.57797173364884E-05  6.47153209693895E-03
 cg2d: Sum(rhs),rhsMax =   5.58056676053884E-05  6.47377351949043E-03
 cg2d: Sum(rhs),rhsMax =   5.58347536692137E-05  6.47600750475590E-03
 cg2d: Sum(rhs),rhsMax =   5.58672236485081E-05  6.47823405879916E-03
 cg2d: Sum(rhs),rhsMax =   5.58984752962803E-05  6.48045318393208E-03
 cg2d: Sum(rhs),rhsMax =   5.59284493934553E-05  6.48266486580481E-03
(PID.TID 0000.0001)      cg2d_init_res =   1.45200498765440E-02
(PID.TID 0000.0001)      cg2d_iters(min,last) =      -1     391
(PID.TID 0000.0001)      cg2d_last_res =   9.90659307120613E-08
(PID.TID 0000.0001) // =======================================================
(PID.TID 0000.0001) // Begin MONITOR dynamic field statistics
(PID.TID 0000.0001) // =======================================================
(PID.TID 0000.0001) %MON time_tsnumber                =                  3240
(PID.TID 0000.0001) %MON time_secondsf                =   3.8880000000000E+06
(PID.TID 0000.0001) %MON dynstat_eta_max              =   6.4599330725678E-02
(PID.TID 0000.0001) %MON dynstat_eta_min              =  -1.0716524503857E-01
(PID.TID 0000.0001) %MON dynstat_eta_mean             =  -1.7269519713384E-09
(PID.TID 0000.0001) %MON dynstat_eta_sd               =   4.4774795510870E-02
(PID.TID 0000.0001) %MON dynstat_eta_del2             =   2.6248927264884E-07
(PID.TID 0000.0001) %MON dynstat_uvel_max             =   3.6524281093961E-02
(PID.TID 0000.0001) %MON dynstat_uvel_min             =  -5.1606467219412E-02
(PID.TID 0000.0001) %MON dynstat_uvel_mean            =  -4.2844698055319E-08
(PID.TID 0000.0001) %MON dynstat_uvel_sd              =   1.8074388244379E-02
(PID.TID 0000.0001) %MON dynstat_uvel_del2            =   5.3382118448668E-07
(PID.TID 0000.0001) %MON dynstat_vvel_max             =   4.1823618540214E-02
(PID.TID 0000.0001) %MON dynstat_vvel_min             =  -3.3876022557424E-02
(PID.TID 0000.0001) %MON dynstat_vvel_mean            =  -2.1886093682705E-07
(PID.TID 0000.0001) %MON dynstat_vvel_sd              =   1.5933711300771E-02
(PID.TID 0000.0001) %MON dynstat_vvel_del2            =   7.5978302976531E-07
(PID.TID 0000.0001) %MON dynstat_wvel_max             =   3.1799054879230E-08
(PID.TID 0000.0001) %MON dynstat_wvel_min             =  -2.4356227544340E-08
(PID.TID 0000.0001) %MON dynstat_wvel_mean            =  -4.2577672392122E-21
(PID.TID 0000.0001) %MON dynstat_wvel_sd              =   1.1650959209032E-08
(PID.TID 0000.0001) %MON dynstat_wvel_del2            =   1.0510183026583E-13
(PID.TID 0000.0001) %MON dynstat_theta_max            =   2.0000000000000E+01
(PID.TID 0000.0001) %MON dynstat_theta_min            =   2.0000000000000E+01
(PID.TID 0000.0001) %MON dynstat_theta_mean           =   1.9999999999999E+01
(PID.TID 0000.0001) %MON dynstat_theta_sd             =   1.1972645097557E-12
(PID.TID 0000.0001) %MON dynstat_theta_del2           =   0.0000000000000E+00
(PID.TID 0000.0001) %MON dynstat_salt_max             =   3.0000000000000E+01
(PID.TID 0000.0001) %MON dynstat_salt_min             =   3.0000000000000E+01
(PID.TID 0000.0001) %MON dynstat_salt_mean            =   2.9999999999998E+01
(PID.TID 0000.0001) %MON dynstat_salt_sd              =   2.1529444893531E-12
(PID.TID 0000.0001) %MON dynstat_salt_del2            =   0.0000000000000E+00
(PID.TID 0000.0001) %MON trAdv_CFL_u_max              =   1.2381706646231E-02
(PID.TID 0000.0001) %MON trAdv_CFL_v_max              =   1.0031889294740E-02
(PID.TID 0000.0001) %MON trAdv_CFL_w_max              =   7.9719067289839E-09
(PID.TID 0000.0001) %MON advcfl_uvel_max              =   1.2385552132659E-02
(PID.TID 0000.0001) %MON advcfl_vvel_max              =   1.0037668449651E-02
(PID.TID 0000.0001) %MON advcfl_wvel_max              =   1.5263546342030E-08
(PID.TID 0000.0001) %MON advcfl_W_hf_max              =   0.0000000000000E+00
(PID.TID 0000.0001) %MON pe_b_mean                    =   2.0511668970298E-06
(PID.TID 0000.0001) %MON ke_max                       =   1.3316550603244E-03
(PID.TID 0000.0001) %MON ke_mean                      =   2.8897665738154E-04
(PID.TID 0000.0001) %MON ke_vol                       =   7.2529629296391E+15
(PID.TID 0000.0001) %MON vort_r_min                   =  -1.7231083671922E-06
(PID.TID 0000.0001) %MON vort_r_max                   =   2.2348125719108E-06
(PID.TID 0000.0001) %MON vort_a_mean                  =   1.0615000000000E-04
(PID.TID 0000.0001) %MON vort_a_sd                    =   3.5761473510478E-06
(PID.TID 0000.0001) %MON vort_p_mean                  =   1.1210870169429E-04
(PID.TID 0000.0001) %MON vort_p_sd                    =   2.1055439712754E-05
(PID.TID 0000.0001) %MON surfExpan_theta_mean         =  -8.5634907336472E-20
(PID.TID 0000.0001) %MON surfExpan_salt_mean          =  -1.2845645640603E-19
(PID.TID 0000.0001) // =======================================================
(PID.TID 0000.0001) // End MONITOR dynamic field statistics
(PID.TID 0000.0001) // =======================================================
 cg2d: Sum(rhs),rhsMax =   5.59606775232842E-05  6.48486910614143E-03
 cg2d: Sum(rhs),rhsMax =   5.59952213938292E-05  6.48706589429726E-03
 cg2d: Sum(rhs),rhsMax =   5.60275786801058E-05  6.48925523531250E-03
 cg2d: Sum(rhs),rhsMax =   5.60652500858903E-05  6.49143711849148E-03
 cg2d: Sum(rhs),rhsMax =   5.61076828764453E-05  6.49361154826903E-03
 cg2d: Sum(rhs),rhsMax =   5.61540597776740E-05  6.49577851382362E-03
 cg2d: Sum(rhs),rhsMax =   5.61991694437597E-05  6.49793802117950E-03
 cg2d: Sum(rhs),rhsMax =   5.62464289454678E-05  6.50009005624276E-03
 cg2d: Sum(rhs),rhsMax =   5.62951988869730E-05  6.50223462416527E-03
 cg2d: Sum(rhs),rhsMax =   5.63375153472309E-05  6.50437172088643E-03
 cg2d: Sum(rhs),rhsMax =   5.63807512336951E-05  6.50650133851457E-03
 cg2d: Sum(rhs),rhsMax =   5.64179847374598E-05  6.50862347793212E-03
 cg2d: Sum(rhs),rhsMax =   5.64597512561956E-05  6.51073813063455E-03
 cg2d: Sum(rhs),rhsMax =   5.65040021641877E-05  6.51284529695318E-03
 cg2d: Sum(rhs),rhsMax =   5.65446901624372E-05  6.51494498224342E-03
 cg2d: Sum(rhs),rhsMax =   5.65834696837749E-05  6.51703717639848E-03
 cg2d: Sum(rhs),rhsMax =   5.66220732866619E-05  6.51912187472304E-03
 cg2d: Sum(rhs),rhsMax =   5.66621249643646E-05  6.52119907984022E-03
 cg2d: Sum(rhs),rhsMax =   5.67053467037366E-05  6.52326878451515E-03
 cg2d: Sum(rhs),rhsMax =   5.67458470930880E-05  6.52533099328414E-03
 cg2d: Sum(rhs),rhsMax =   5.67886079944450E-05  6.52738569055758E-03
 cg2d: Sum(rhs),rhsMax =   5.68302683301645E-05  6.52943289153832E-03
 cg2d: Sum(rhs),rhsMax =   5.68784088233232E-05  6.53147257655110E-03
 cg2d: Sum(rhs),rhsMax =   5.69255363132500E-05  6.53350475046073E-03
 cg2d: Sum(rhs),rhsMax =   5.69714144616373E-05  6.53552940700273E-03
 cg2d: Sum(rhs),rhsMax =   5.70195257191957E-05  6.53754655505583E-03
 cg2d: Sum(rhs),rhsMax =   5.70688620565063E-05  6.53955618135548E-03
 cg2d: Sum(rhs),rhsMax =   5.71148456943182E-05  6.54155828504223E-03
 cg2d: Sum(rhs),rhsMax =   5.71609437565712E-05  6.54355287685101E-03
 cg2d: Sum(rhs),rhsMax =   5.72019746373290E-05  6.54553993409342E-03
 cg2d: Sum(rhs),rhsMax =   5.72374922235857E-05  6.54751947240401E-03
 cg2d: Sum(rhs),rhsMax =   5.72747776532394E-05  6.54954198012543E-03
 cg2d: Sum(rhs),rhsMax =   5.73095476238579E-05  6.55157267117534E-03
 cg2d: Sum(rhs),rhsMax =   5.73420383564960E-05  6.55359583873152E-03
 cg2d: Sum(rhs),rhsMax =   5.73759126621206E-05  6.55561149287743E-03
 cg2d: Sum(rhs),rhsMax =   5.74111029175429E-05  6.55761962467978E-03
 cg2d: Sum(rhs),rhsMax =   5.74429374961536E-05  6.55962022907114E-03
 cg2d: Sum(rhs),rhsMax =   5.74717071549970E-05  6.56161331109450E-03
 cg2d: Sum(rhs),rhsMax =   5.75012403717017E-05  6.56359886362492E-03
 cg2d: Sum(rhs),rhsMax =   5.75315304672256E-05  6.56557688105827E-03
 cg2d: Sum(rhs),rhsMax =   5.75625111695654E-05  6.56754736934823E-03
 cg2d: Sum(rhs),rhsMax =   5.75896178832844E-05  6.56951032143859E-03
 cg2d: Sum(rhs),rhsMax =   5.76172594463540E-05  6.57146573885595E-03
 cg2d: Sum(rhs),rhsMax =   5.76453714240577E-05  6.57341361594289E-03
 cg2d: Sum(rhs),rhsMax =   5.76739161618734E-05  6.57535395569705E-03
 cg2d: Sum(rhs),rhsMax =   5.76988535097806E-05  6.57728674594240E-03
 cg2d: Sum(rhs),rhsMax =   5.77240925816858E-05  6.57921200196006E-03
 cg2d: Sum(rhs),rhsMax =   5.77497013834580E-05  6.58112971240477E-03
 cg2d: Sum(rhs),rhsMax =   5.77756193301773E-05  6.58303987833159E-03
 cg2d: Sum(rhs),rhsMax =   5.78018169598471E-05  6.58494249583670E-03
 cg2d: Sum(rhs),rhsMax =   5.78283024568992E-05  6.58683756650009E-03
 cg2d: Sum(rhs),rhsMax =   5.78550496113619E-05  6.58872508598018E-03
 cg2d: Sum(rhs),rhsMax =   5.78777191967093E-05  6.59060505537459E-03
 cg2d: Sum(rhs),rhsMax =   5.79006188076558E-05  6.59247747411531E-03
 cg2d: Sum(rhs),rhsMax =   5.79237246255238E-05  6.59434233546734E-03
 cg2d: Sum(rhs),rhsMax =   5.79470205245786E-05  6.59619964545510E-03
 cg2d: Sum(rhs),rhsMax =   5.79704937201538E-05  6.59804939668746E-03
 cg2d: Sum(rhs),rhsMax =   5.79941848086189E-05  6.59989159295571E-03
 cg2d: Sum(rhs),rhsMax =   5.80180338508686E-05  6.60172622927507E-03
 cg2d: Sum(rhs),rhsMax =   5.80420478823574E-05  6.60355330900580E-03
 cg2d: Sum(rhs),rhsMax =   5.80662154149116E-05  6.60537282716285E-03
 cg2d: Sum(rhs),rhsMax =   5.80905483597516E-05  6.60718478623492E-03
 cg2d: Sum(rhs),rhsMax =   5.81150448110767E-05  6.60898918223731E-03
 cg2d: Sum(rhs),rhsMax =   5.81396922248164E-05  6.61078601782273E-03
 cg2d: Sum(rhs),rhsMax =   5.81644528118965E-05  6.61257528867375E-03
 cg2d: Sum(rhs),rhsMax =   5.81893754037071E-05  6.61435699769091E-03
 cg2d: Sum(rhs),rhsMax =   5.82144411136373E-05  6.61613114051779E-03
 cg2d: Sum(rhs),rhsMax =   5.82396354661972E-05  6.61789772057326E-03
 cg2d: Sum(rhs),rhsMax =   5.82649568325593E-05  6.61965673305063E-03
 cg2d: Sum(rhs),rhsMax =   5.82903943124467E-05  6.62140818203079E-03
 cg2d: Sum(rhs),rhsMax =   5.83159500947826E-05  6.62315206209082E-03
 cg2d: Sum(rhs),rhsMax =   5.83416323779270E-05  6.62488837815715E-03
(PID.TID 0000.0001)      cg2d_init_res =   1.39331193542341E-02
(PID.TID 0000.0001)      cg2d_iters(min,last) =      -1     397
(PID.TID 0000.0001)      cg2d_last_res =   9.72803771641500E-08
(PID.TID 0000.0001) // =======================================================
(PID.TID 0000.0001) // Begin MONITOR dynamic field statistics
(PID.TID 0000.0001) // =======================================================
(PID.TID 0000.0001) %MON time_tsnumber                =                  3312
(PID.TID 0000.0001) %MON time_secondsf                =   3.9744000000000E+06
(PID.TID 0000.0001) %MON dynstat_eta_max              =   6.6260933083290E-02
(PID.TID 0000.0001) %MON dynstat_eta_min              =  -1.0922344709602E-01
(PID.TID 0000.0001) %MON dynstat_eta_mean             =  -1.8405972287745E-09
(PID.TID 0000.0001) %MON dynstat_eta_sd               =   4.5541779675267E-02
(PID.TID 0000.0001) %MON dynstat_eta_del2             =   2.6839488776932E-07
(PID.TID 0000.0001) %MON dynstat_uvel_max             =   3.7081586109491E-02
(PID.TID 0000.0001) %MON dynstat_uvel_min             =  -5.2751463542129E-02
(PID.TID 0000.0001) %MON dynstat_uvel_mean            =  -1.0036822095172E-08
(PID.TID 0000.0001) %MON dynstat_uvel_sd              =   1.8326809881397E-02
(PID.TID 0000.0001) %MON dynstat_uvel_del2            =   5.3941559050207E-07
(PID.TID 0000.0001) %MON dynstat_vvel_max             =   4.3258574275968E-02
(PID.TID 0000.0001) %MON dynstat_vvel_min             =  -3.4728508343620E-02
(PID.TID 0000.0001) %MON dynstat_vvel_mean            =  -2.0076100338534E-07
(PID.TID 0000.0001) %MON dynstat_vvel_sd              =   1.6333212826798E-02
(PID.TID 0000.0001) %MON dynstat_vvel_del2            =   7.7633698059629E-07
(PID.TID 0000.0001) %MON dynstat_wvel_max             =   3.0235188084189E-08
(PID.TID 0000.0001) %MON dynstat_wvel_min             =  -2.4078107080713E-08
(PID.TID 0000.0001) %MON dynstat_wvel_mean            =   7.5804564884298E-22
(PID.TID 0000.0001) %MON dynstat_wvel_sd              =   1.1463048357773E-08
(PID.TID 0000.0001) %MON dynstat_wvel_del2            =   1.0348898426017E-13
(PID.TID 0000.0001) %MON dynstat_theta_max            =   2.0000000000000E+01
(PID.TID 0000.0001) %MON dynstat_theta_min            =   2.0000000000000E+01
(PID.TID 0000.0001) %MON dynstat_theta_mean           =   1.9999999999999E+01
(PID.TID 0000.0001) %MON dynstat_theta_sd             =   1.1972645097557E-12
(PID.TID 0000.0001) %MON dynstat_theta_del2           =   0.0000000000000E+00
(PID.TID 0000.0001) %MON dynstat_salt_max             =   3.0000000000000E+01
(PID.TID 0000.0001) %MON dynstat_salt_min             =   3.0000000000000E+01
(PID.TID 0000.0001) %MON dynstat_salt_mean            =   2.9999999999998E+01
(PID.TID 0000.0001) %MON dynstat_salt_sd              =   2.1529444893531E-12
(PID.TID 0000.0001) %MON dynstat_salt_del2            =   0.0000000000000E+00
(PID.TID 0000.0001) %MON trAdv_CFL_u_max              =   1.2656563173999E-02
(PID.TID 0000.0001) %MON trAdv_CFL_v_max              =   1.0376779190073E-02
(PID.TID 0000.0001) %MON trAdv_CFL_w_max              =   7.5699045989287E-09
(PID.TID 0000.0001) %MON advcfl_uvel_max              =   1.2660351250111E-02
(PID.TID 0000.0001) %MON advcfl_vvel_max              =   1.0382057826232E-02
(PID.TID 0000.0001) %MON advcfl_wvel_max              =   1.4512890280411E-08
(PID.TID 0000.0001) %MON advcfl_W_hf_max              =   0.0000000000000E+00
(PID.TID 0000.0001) %MON pe_b_mean                    =   2.1220410097426E-06
(PID.TID 0000.0001) %MON ke_max                       =   1.3913727785504E-03
(PID.TID 0000.0001) %MON ke_mean                      =   2.9996653180598E-04
(PID.TID 0000.0001) %MON ke_vol                       =   7.2529629296391E+15
(PID.TID 0000.0001) %MON vort_r_min                   =  -1.7511663603185E-06
(PID.TID 0000.0001) %MON vort_r_max                   =   2.2908122294426E-06
(PID.TID 0000.0001) %MON vort_a_mean                  =   1.0615000000000E-04
(PID.TID 0000.0001) %MON vort_a_sd                    =   3.5766123259578E-06
(PID.TID 0000.0001) %MON vort_p_mean                  =   1.1210870169429E-04
(PID.TID 0000.0001) %MON vort_p_sd                    =   2.1055597870995E-05
(PID.TID 0000.0001) %MON surfExpan_theta_mean         =   1.4710146130620E-20
(PID.TID 0000.0001) %MON surfExpan_salt_mean          =   2.1961293690895E-20
(PID.TID 0000.0001) // =======================================================
(PID.TID 0000.0001) // End MONITOR dynamic field statistics
(PID.TID 0000.0001) // =======================================================
 cg2d: Sum(rhs),rhsMax =   5.83674492807494E-05  6.62661712421384E-03
 cg2d: Sum(rhs),rhsMax =   5.83933851502241E-05  6.62833830582115E-03
 cg2d: Sum(rhs),rhsMax =   5.84194314588427E-05  6.63005191676199E-03
 cg2d: Sum(rhs),rhsMax =   5.84455834125115E-05  6.63175796281495E-03
 cg2d: Sum(rhs),rhsMax =   5.84718582935296E-05  6.63345643781082E-03
 cg2d: Sum(rhs),rhsMax =   5.84982327034949E-05  6.63514734755365E-03
 cg2d: Sum(rhs),rhsMax =   5.85247015225125E-05  6.63683068617115E-03
 cg2d: Sum(rhs),rhsMax =   5.85512950932808E-05  6.63850645922077E-03
 cg2d: Sum(rhs),rhsMax =   5.85779988980910E-05  6.64017466137813E-03
 cg2d: Sum(rhs),rhsMax =   5.86047773318635E-05  6.64183529777656E-03
 cg2d: Sum(rhs),rhsMax =   5.86316758033911E-05  6.64348836370578E-03
 cg2d: Sum(rhs),rhsMax =   5.86586870799503E-05  6.64513386390752E-03
 cg2d: Sum(rhs),rhsMax =   5.86852476742428E-05  6.64683326142013E-03
 cg2d: Sum(rhs),rhsMax =   5.87118365084091E-05  6.64853059100617E-03
 cg2d: Sum(rhs),rhsMax =   5.87385409920509E-05  6.65022035545357E-03
 cg2d: Sum(rhs),rhsMax =   5.87653541243823E-05  6.65190255953218E-03
 cg2d: Sum(rhs),rhsMax =   5.87922433878168E-05  6.65357719863094E-03
 cg2d: Sum(rhs),rhsMax =   5.88192490584220E-05  6.65524427762565E-03
 cg2d: Sum(rhs),rhsMax =   5.88462977232772E-05  6.65690379199369E-03
 cg2d: Sum(rhs),rhsMax =   5.88734551433933E-05  6.65855574669809E-03
 cg2d: Sum(rhs),rhsMax =   5.89007242806769E-05  6.66020013730694E-03
 cg2d: Sum(rhs),rhsMax =   5.89280625294647E-05  6.66183696889791E-03
 cg2d: Sum(rhs),rhsMax =   5.89555117379531E-05  6.66346623706676E-03
 cg2d: Sum(rhs),rhsMax =   5.89830482778692E-05  6.66508794709892E-03
 cg2d: Sum(rhs),rhsMax =   5.90106538680998E-05  6.66670209449289E-03
 cg2d: Sum(rhs),rhsMax =   5.90383502078577E-05  6.66830868488622E-03
 cg2d: Sum(rhs),rhsMax =   5.90661265664064E-05  6.66990771353300E-03
 cg2d: Sum(rhs),rhsMax =   5.90939803992994E-05  6.67149918655509E-03
 cg2d: Sum(rhs),rhsMax =   5.91219240496190E-05  6.67308309886288E-03
 cg2d: Sum(rhs),rhsMax =   5.91499543196191E-05  6.67465945712926E-03
 cg2d: Sum(rhs),rhsMax =   5.91780690218061E-05  6.67622825588968E-03
 cg2d: Sum(rhs),rhsMax =   5.92062678567015E-05  6.67778950235817E-03
 cg2d: Sum(rhs),rhsMax =   5.92345406301418E-05  6.67934319073983E-03
 cg2d: Sum(rhs),rhsMax =   5.92629052506260E-05  6.68088932872086E-03
 cg2d: Sum(rhs),rhsMax =   5.92913512798034E-05  6.68242791025999E-03
 cg2d: Sum(rhs),rhsMax =   5.93198568618141E-05  6.68395894342474E-03
 cg2d: Sum(rhs),rhsMax =   5.93484503705708E-05  6.68548242201796E-03
 cg2d: Sum(rhs),rhsMax =   5.93771290539283E-05  6.68699835439552E-03
 cg2d: Sum(rhs),rhsMax =   5.94058876702457E-05  6.68850673428498E-03
 cg2d: Sum(rhs),rhsMax =   5.94347131962752E-05  6.69000757027913E-03
 cg2d: Sum(rhs),rhsMax =   5.94636355739670E-05  6.69150085606139E-03
 cg2d: Sum(rhs),rhsMax =   5.94926089756019E-05  6.69298660042967E-03
 cg2d: Sum(rhs),rhsMax =   5.95216827037877E-05  6.69446479705353E-03
 cg2d: Sum(rhs),rhsMax =   5.95508047794584E-05  6.69593545491721E-03
 cg2d: Sum(rhs),rhsMax =   5.95800421448883E-05  6.69739856768402E-03
 cg2d: Sum(rhs),rhsMax =   5.96093345110187E-05  6.69885414452335E-03
 cg2d: Sum(rhs),rhsMax =   5.96386975544772E-05  6.70030217908601E-03
 cg2d: Sum(rhs),rhsMax =   5.96681468419400E-05  6.70174268074006E-03
 cg2d: Sum(rhs),rhsMax =   5.96976524251448E-05  6.70317564310382E-03
 cg2d: Sum(rhs),rhsMax =   5.97272548151020E-05  6.70460107576884E-03
 cg2d: Sum(rhs),rhsMax =   5.97569119626441E-05  6.70601897228267E-03
 cg2d: Sum(rhs),rhsMax =   5.97866455650572E-05  6.70742934251175E-03
 cg2d: Sum(rhs),rhsMax =   5.98164551127451E-05  6.70883217988726E-03
 cg2d: Sum(rhs),rhsMax =   5.98463261399674E-05  6.71022749457941E-03
 cg2d: Sum(rhs),rhsMax =   5.98762791248519E-05  6.71161527987666E-03
 cg2d: Sum(rhs),rhsMax =   5.99062909695017E-05  6.71299554627624E-03
 cg2d: Sum(rhs),rhsMax =   5.99364098488855E-05  6.71436828691649E-03
 cg2d: Sum(rhs),rhsMax =   5.99665752489616E-05  6.71573351262075E-03
 cg2d: Sum(rhs),rhsMax =   5.99968153586227E-05  6.71709121637724E-03
 cg2d: Sum(rhs),rhsMax =   6.00271008523072E-05  6.71844140932829E-03
 cg2d: Sum(rhs),rhsMax =   6.00574849576882E-05  6.71978408432557E-03
 cg2d: Sum(rhs),rhsMax =   6.00879329762862E-05  6.72111925280550E-03
 cg2d: Sum(rhs),rhsMax =   6.01184254274013E-05  6.72244690752744E-03
 cg2d: Sum(rhs),rhsMax =   6.01490302915314E-05  6.72376706016827E-03
 cg2d: Sum(rhs),rhsMax =   6.01794115755114E-05  6.72510878366978E-03
 cg2d: Sum(rhs),rhsMax =   6.02095154948338E-05  6.72648133266745E-03
 cg2d: Sum(rhs),rhsMax =   6.02397138529892E-05  6.72784637409611E-03
 cg2d: Sum(rhs),rhsMax =   6.02699600780621E-05  6.72920391613021E-03
 cg2d: Sum(rhs),rhsMax =   6.03002738717099E-05  6.73055395474939E-03
 cg2d: Sum(rhs),rhsMax =   6.03306584253951E-05  6.73189649841831E-03
 cg2d: Sum(rhs),rhsMax =   6.03611115377327E-05  6.73323154301042E-03
 cg2d: Sum(rhs),rhsMax =   6.03916333813688E-05  6.73455909725804E-03
(PID.TID 0000.0001)      cg2d_init_res =   1.34202780666158E-02
(PID.TID 0000.0001)      cg2d_iters(min,last) =      -1     397
(PID.TID 0000.0001)      cg2d_last_res =   9.79970860918786E-08
(PID.TID 0000.0001) // =======================================================
(PID.TID 0000.0001) // Begin MONITOR dynamic field statistics
(PID.TID 0000.0001) // =======================================================
(PID.TID 0000.0001) %MON time_tsnumber                =                  3384
(PID.TID 0000.0001) %MON time_secondsf                =   4.0608000000000E+06
(PID.TID 0000.0001) %MON dynstat_eta_max              =   6.7711223834027E-02
(PID.TID 0000.0001) %MON dynstat_eta_min              =  -1.1126363492691E-01
(PID.TID 0000.0001) %MON dynstat_eta_mean             =  -1.9368106283368E-09
(PID.TID 0000.0001) %MON dynstat_eta_sd               =   4.6286585459663E-02
(PID.TID 0000.0001) %MON dynstat_eta_del2             =   2.7417383604961E-07
(PID.TID 0000.0001) %MON dynstat_uvel_max             =   3.7727718690720E-02
(PID.TID 0000.0001) %MON dynstat_uvel_min             =  -5.3878774951537E-02
(PID.TID 0000.0001) %MON dynstat_uvel_mean            =   2.0908719902847E-08
(PID.TID 0000.0001) %MON dynstat_uvel_sd              =   1.8581276548315E-02
(PID.TID 0000.0001) %MON dynstat_uvel_del2            =   5.4552016530428E-07
(PID.TID 0000.0001) %MON dynstat_vvel_max             =   4.4513697465487E-02
(PID.TID 0000.0001) %MON dynstat_vvel_min             =  -3.5560514162272E-02
(PID.TID 0000.0001) %MON dynstat_vvel_mean            =  -1.8894815910871E-07
(PID.TID 0000.0001) %MON dynstat_vvel_sd              =   1.6717864562391E-02
(PID.TID 0000.0001) %MON dynstat_vvel_del2            =   7.8993024726673E-07
(PID.TID 0000.0001) %MON dynstat_wvel_max             =   2.8624775013886E-08
(PID.TID 0000.0001) %MON dynstat_wvel_min             =  -2.4057109705172E-08
(PID.TID 0000.0001) %MON dynstat_wvel_mean            =  -2.6143425503043E-21
(PID.TID 0000.0001) %MON dynstat_wvel_sd              =   1.1311672868036E-08
(PID.TID 0000.0001) %MON dynstat_wvel_del2            =   1.0151058047142E-13
(PID.TID 0000.0001) %MON dynstat_theta_max            =   2.0000000000000E+01
(PID.TID 0000.0001) %MON dynstat_theta_min            =   2.0000000000000E+01
(PID.TID 0000.0001) %MON dynstat_theta_mean           =   1.9999999999999E+01
(PID.TID 0000.0001) %MON dynstat_theta_sd             =   1.1972645097557E-12
(PID.TID 0000.0001) %MON dynstat_theta_del2           =   0.0000000000000E+00
(PID.TID 0000.0001) %MON dynstat_salt_max             =   3.0000000000000E+01
(PID.TID 0000.0001) %MON dynstat_salt_min             =   3.0000000000000E+01
(PID.TID 0000.0001) %MON dynstat_salt_mean            =   2.9999999999998E+01
(PID.TID 0000.0001) %MON dynstat_salt_sd              =   2.1529444893531E-12
(PID.TID 0000.0001) %MON dynstat_salt_del2            =   0.0000000000000E+00
(PID.TID 0000.0001) %MON trAdv_CFL_u_max              =   1.2927178252153E-02
(PID.TID 0000.0001) %MON trAdv_CFL_v_max              =   1.0678658868589E-02
(PID.TID 0000.0001) %MON trAdv_CFL_w_max              =   7.1555518668378E-09
(PID.TID 0000.0001) %MON advcfl_uvel_max              =   1.2930905988369E-02
(PID.TID 0000.0001) %MON advcfl_vvel_max              =   1.0683287391717E-02
(PID.TID 0000.0001) %MON advcfl_wvel_max              =   1.3739892006665E-08
(PID.TID 0000.0001) %MON advcfl_W_hf_max              =   0.0000000000000E+00
(PID.TID 0000.0001) %MON pe_b_mean                    =   2.1920177439320E-06
(PID.TID 0000.0001) %MON ke_max                       =   1.4514524198152E-03
(PID.TID 0000.0001) %MON ke_mean                      =   3.1096929623157E-04
(PID.TID 0000.0001) %MON ke_vol                       =   7.2529629296391E+15
(PID.TID 0000.0001) %MON vort_r_min                   =  -1.7781138335098E-06
(PID.TID 0000.0001) %MON vort_r_max                   =   2.3361150163696E-06
(PID.TID 0000.0001) %MON vort_a_mean                  =   1.0615000000000E-04
(PID.TID 0000.0001) %MON vort_a_sd                    =   3.5770717354132E-06
(PID.TID 0000.0001) %MON vort_p_mean                  =   1.1210870169429E-04
(PID.TID 0000.0001) %MON vort_p_sd                    =   2.1055748044112E-05
(PID.TID 0000.0001) %MON surfExpan_theta_mean         =  -5.2295541447685E-20
(PID.TID 0000.0001) %MON surfExpan_salt_mean          =  -7.8484641909611E-20
(PID.TID 0000.0001) // =======================================================
(PID.TID 0000.0001) // End MONITOR dynamic field statistics
(PID.TID 0000.0001) // =======================================================
 cg2d: Sum(rhs),rhsMax =   6.04222213480999E-05  6.73587915695713E-03
 cg2d: Sum(rhs),rhsMax =   6.04528769692298E-05  6.73719173106810E-03
 cg2d: Sum(rhs),rhsMax =   6.04835916729542E-05  6.73849681535169E-03
 cg2d: Sum(rhs),rhsMax =   6.05143702589858E-05  6.73979441896531E-03
 cg2d: Sum(rhs),rhsMax =   6.05452425968150E-05  6.74108453764447E-03
 cg2d: Sum(rhs),rhsMax =   6.05761425825123E-05  6.74236718074013E-03
 cg2d: Sum(rhs),rhsMax =   6.06071163815499E-05  6.74364234397822E-03
 cg2d: Sum(rhs),rhsMax =   6.06381643114874E-05  6.74491003687896E-03
 cg2d: Sum(rhs),rhsMax =   6.06692586932911E-05  6.74617025516760E-03
 cg2d: Sum(rhs),rhsMax =   6.07004355147251E-05  6.74742300853675E-03
 cg2d: Sum(rhs),rhsMax =   6.07316838870640E-05  6.74866829272136E-03
 cg2d: Sum(rhs),rhsMax =   6.07629897285552E-05  6.74990611756627E-03
 cg2d: Sum(rhs),rhsMax =   6.07943739011564E-05  6.75113647882154E-03
 cg2d: Sum(rhs),rhsMax =   6.08257930158798E-05  6.75235938648868E-03
 cg2d: Sum(rhs),rhsMax =   6.08572923960090E-05  6.75357483633061E-03
 cg2d: Sum(rhs),rhsMax =   6.08888334796798E-05  6.75478283850296E-03
 cg2d: Sum(rhs),rhsMax =   6.09204567451800E-05  6.75598338879013E-03
 cg2d: Sum(rhs),rhsMax =   6.09521458776480E-05  6.75717649749025E-03
 cg2d: Sum(rhs),rhsMax =   6.09838849672595E-05  6.75836216041026E-03
 cg2d: Sum(rhs),rhsMax =   6.10156636354413E-05  6.75954038799786E-03
 cg2d: Sum(rhs),rhsMax =   6.10475415576046E-05  6.76071117608046E-03
 cg2d: Sum(rhs),rhsMax =   6.10794842036508E-05  6.76187453525242E-03
 cg2d: Sum(rhs),rhsMax =   6.11114789570361E-05  6.76303046135758E-03
 cg2d: Sum(rhs),rhsMax =   6.11435375481215E-05  6.76417896514035E-03
 cg2d: Sum(rhs),rhsMax =   6.11756433297229E-05  6.76532004246533E-03
 cg2d: Sum(rhs),rhsMax =   6.12078270535582E-05  6.76645370422377E-03
 cg2d: Sum(rhs),rhsMax =   6.12400672526281E-05  6.76757994630187E-03
 cg2d: Sum(rhs),rhsMax =   6.12723612451822E-05  6.76869877972922E-03
 cg2d: Sum(rhs),rhsMax =   6.13047255157639E-05  6.76981020042369E-03
 cg2d: Sum(rhs),rhsMax =   6.13371478884585E-05  6.77091421954970E-03
 cg2d: Sum(rhs),rhsMax =   6.13696259315407E-05  6.77201083305019E-03
 cg2d: Sum(rhs),rhsMax =   6.14021623811932E-05  6.77310005223162E-03
 cg2d: Sum(rhs),rhsMax =   6.14347720976109E-05  6.77418187306686E-03
 cg2d: Sum(rhs),rhsMax =   6.14674534332069E-05  6.77525630699123E-03
 cg2d: Sum(rhs),rhsMax =   6.15001630856528E-05  6.77632335001402E-03
 cg2d: Sum(rhs),rhsMax =   6.15329474562124E-05  6.77738301370179E-03
 cg2d: Sum(rhs),rhsMax =   6.15657984895741E-05  6.77843529409090E-03
 cg2d: Sum(rhs),rhsMax =   6.15987082386992E-05  6.77948020288044E-03
 cg2d: Sum(rhs),rhsMax =   6.16316584595034E-05  6.78051773615159E-03
 cg2d: Sum(rhs),rhsMax =   6.16646619324797E-05  6.78154790571637E-03
 cg2d: Sum(rhs),rhsMax =   6.16977474092440E-05  6.78257070770102E-03
 cg2d: Sum(rhs),rhsMax =   6.17308729975955E-05  6.78358615404085E-03
 cg2d: Sum(rhs),rhsMax =   6.17640748226895E-05  6.78459424089964E-03
 cg2d: Sum(rhs),rhsMax =   6.17973129257627E-05  6.78559498033296E-03
 cg2d: Sum(rhs),rhsMax =   6.18305341679977E-05  6.78660004980733E-03
 cg2d: Sum(rhs),rhsMax =   6.18632740362550E-05  6.78765363799287E-03
 cg2d: Sum(rhs),rhsMax =   6.18960987743477E-05  6.78869987323636E-03
 cg2d: Sum(rhs),rhsMax =   6.19289575169068E-05  6.78973876053241E-03
 cg2d: Sum(rhs),rhsMax =   6.19618752100493E-05  6.79077030290694E-03
 cg2d: Sum(rhs),rhsMax =   6.19948604581434E-05  6.79179450553564E-03
 cg2d: Sum(rhs),rhsMax =   6.20279080450659E-05  6.79281137142956E-03
 cg2d: Sum(rhs),rhsMax =   6.20610098062714E-05  6.79382090593824E-03
 cg2d: Sum(rhs),rhsMax =   6.20941513252739E-05  6.79482311205582E-03
 cg2d: Sum(rhs),rhsMax =   6.21273667778803E-05  6.79581799531243E-03
 cg2d: Sum(rhs),rhsMax =   6.21606205260092E-05  6.79680555868144E-03
 cg2d: Sum(rhs),rhsMax =   6.21939514709564E-05  6.79778580787151E-03
 cg2d: Sum(rhs),rhsMax =   6.22273430700663E-05  6.79875874583838E-03
 cg2d: Sum(rhs),rhsMax =   6.22607813741626E-05  6.79972437846453E-03
 cg2d: Sum(rhs),rhsMax =   6.22942692021795E-05  6.80068270869305E-03
 cg2d: Sum(rhs),rhsMax =   6.23278222341768E-05  6.80163374258295E-03
 cg2d: Sum(rhs),rhsMax =   6.23614147454311E-05  6.80257748305029E-03
 cg2d: Sum(rhs),rhsMax =   6.23950848226585E-05  6.80351393633973E-03
 cg2d: Sum(rhs),rhsMax =   6.24288092490343E-05  6.80444310534785E-03
 cg2d: Sum(rhs),rhsMax =   6.24625813271417E-05  6.80536499648734E-03
 cg2d: Sum(rhs),rhsMax =   6.24964197835185E-05  6.80627961264507E-03
 cg2d: Sum(rhs),rhsMax =   6.25303177781420E-05  6.80718696040800E-03
 cg2d: Sum(rhs),rhsMax =   6.25642345005401E-05  6.80808704264102E-03
 cg2d: Sum(rhs),rhsMax =   6.25982436249040E-05  6.80897986610701E-03
 cg2d: Sum(rhs),rhsMax =   6.26322754505729E-05  6.80986543365139E-03
 cg2d: Sum(rhs),rhsMax =   6.26663882836134E-05  6.81074375221337E-03
 cg2d: Sum(rhs),rhsMax =   6.27005440392836E-05  6.81161482461818E-03
 cg2d: Sum(rhs),rhsMax =   6.27347492774205E-05  6.81247865798008E-03
(PID.TID 0000.0001)      cg2d_init_res =   1.29872086551142E-02
(PID.TID 0000.0001)      cg2d_iters(min,last) =      -1     397
(PID.TID 0000.0001)      cg2d_last_res =   9.42123946020159E-08
(PID.TID 0000.0001) // =======================================================
(PID.TID 0000.0001) // Begin MONITOR dynamic field statistics
(PID.TID 0000.0001) // =======================================================
(PID.TID 0000.0001) %MON time_tsnumber                =                  3456
(PID.TID 0000.0001) %MON time_secondsf                =   4.1472000000000E+06
(PID.TID 0000.0001) %MON dynstat_eta_max              =   6.8937355323687E-02
(PID.TID 0000.0001) %MON dynstat_eta_min              =  -1.1328692834608E-01
(PID.TID 0000.0001) %MON dynstat_eta_mean             =  -2.0351726422148E-09
(PID.TID 0000.0001) %MON dynstat_eta_sd               =   4.7011902773216E-02
(PID.TID 0000.0001) %MON dynstat_eta_del2             =   2.7979638315242E-07
(PID.TID 0000.0001) %MON dynstat_uvel_max             =   3.8455114217721E-02
(PID.TID 0000.0001) %MON dynstat_uvel_min             =  -5.4987616184287E-02
(PID.TID 0000.0001) %MON dynstat_uvel_mean            =   4.8309776167685E-08
(PID.TID 0000.0001) %MON dynstat_uvel_sd              =   1.8840858448248E-02
(PID.TID 0000.0001) %MON dynstat_uvel_del2            =   5.5206558591314E-07
(PID.TID 0000.0001) %MON dynstat_vvel_max             =   4.5580748095767E-02
(PID.TID 0000.0001) %MON dynstat_vvel_min             =  -3.6371550768422E-02
(PID.TID 0000.0001) %MON dynstat_vvel_mean            =  -1.8304426291718E-07
(PID.TID 0000.0001) %MON dynstat_vvel_sd              =   1.7084341544905E-02
(PID.TID 0000.0001) %MON dynstat_vvel_del2            =   8.0060201480296E-07
(PID.TID 0000.0001) %MON dynstat_wvel_max             =   2.6962726947386E-08
(PID.TID 0000.0001) %MON dynstat_wvel_min             =  -2.4405116913840E-08
(PID.TID 0000.0001) %MON dynstat_wvel_mean            =   2.0125888829259E-21
(PID.TID 0000.0001) %MON dynstat_wvel_sd              =   1.1187450494312E-08
(PID.TID 0000.0001) %MON dynstat_wvel_del2            =   9.9299094095403E-14
(PID.TID 0000.0001) %MON dynstat_theta_max            =   2.0000000000000E+01
(PID.TID 0000.0001) %MON dynstat_theta_min            =   2.0000000000000E+01
(PID.TID 0000.0001) %MON dynstat_theta_mean           =   1.9999999999999E+01
(PID.TID 0000.0001) %MON dynstat_theta_sd             =   1.1972645097557E-12
(PID.TID 0000.0001) %MON dynstat_theta_del2           =   0.0000000000000E+00
(PID.TID 0000.0001) %MON dynstat_salt_max             =   3.0000000000000E+01
(PID.TID 0000.0001) %MON dynstat_salt_min             =   3.0000000000000E+01
(PID.TID 0000.0001) %MON dynstat_salt_mean            =   2.9999999999998E+01
(PID.TID 0000.0001) %MON dynstat_salt_sd              =   2.1529444893531E-12
(PID.TID 0000.0001) %MON dynstat_salt_del2            =   0.0000000000000E+00
(PID.TID 0000.0001) %MON trAdv_CFL_u_max              =   1.3193362819270E-02
(PID.TID 0000.0001) %MON trAdv_CFL_v_max              =   1.0935338397671E-02
(PID.TID 0000.0001) %MON trAdv_CFL_w_max              =   6.7307765565411E-09
(PID.TID 0000.0001) %MON advcfl_uvel_max              =   1.3197027884229E-02
(PID.TID 0000.0001) %MON advcfl_vvel_max              =   1.0939379542984E-02
(PID.TID 0000.0001) %MON advcfl_wvel_max              =   1.2942108934745E-08
(PID.TID 0000.0001) %MON advcfl_W_hf_max              =   0.0000000000000E+00
(PID.TID 0000.0001) %MON pe_b_mean                    =   2.2612544547339E-06
(PID.TID 0000.0001) %MON ke_max                       =   1.5118204662298E-03
(PID.TID 0000.0001) %MON ke_mean                      =   3.2197047153543E-04
(PID.TID 0000.0001) %MON ke_vol                       =   7.2529629296391E+15
(PID.TID 0000.0001) %MON vort_r_min                   =  -1.8040005657484E-06
(PID.TID 0000.0001) %MON vort_r_max                   =   2.3702750396767E-06
(PID.TID 0000.0001) %MON vort_a_mean                  =   1.0615000000000E-04
(PID.TID 0000.0001) %MON vort_a_sd                    =   3.5775229713559E-06
(PID.TID 0000.0001) %MON vort_p_mean                  =   1.1210870169429E-04
(PID.TID 0000.0001) %MON vort_p_sd                    =   2.1055886642727E-05
(PID.TID 0000.0001) %MON surfExpan_theta_mean         =   3.9790909824292E-20
(PID.TID 0000.0001) %MON surfExpan_salt_mean          =   5.9657772072181E-20
(PID.TID 0000.0001) // =======================================================
(PID.TID 0000.0001) // End MONITOR dynamic field statistics
(PID.TID 0000.0001) // =======================================================
 cg2d: Sum(rhs),rhsMax =   6.27690297142376E-05  6.81333525510830E-03
 cg2d: Sum(rhs),rhsMax =   6.28033331137898E-05  6.81418462328619E-03
 cg2d: Sum(rhs),rhsMax =   6.28377125803392E-05  6.81502676530330E-03
 cg2d: Sum(rhs),rhsMax =   6.28721419131807E-05  6.81586168861814E-03
 cg2d: Sum(rhs),rhsMax =   6.29066334246900E-05  6.81668939599950E-03
 cg2d: Sum(rhs),rhsMax =   6.29411769037054E-05  6.81750989508132E-03
 cg2d: Sum(rhs),rhsMax =   6.29757670420989E-05  6.81832318861451E-03
 cg2d: Sum(rhs),rhsMax =   6.30104227770240E-05  6.81912928440133E-03
 cg2d: Sum(rhs),rhsMax =   6.30451296516127E-05  6.81992818517612E-03
 cg2d: Sum(rhs),rhsMax =   6.30798744014865E-05  6.82071989890712E-03
 cg2d: Sum(rhs),rhsMax =   6.31146695142810E-05  6.82150442831496E-03
 cg2d: Sum(rhs),rhsMax =   6.31495384498342E-05  6.82228178154091E-03
 cg2d: Sum(rhs),rhsMax =   6.31844350991524E-05  6.82305196128214E-03
 cg2d: Sum(rhs),rhsMax =   6.32193985000793E-05  6.82381497584757E-03
 cg2d: Sum(rhs),rhsMax =   6.32543921290515E-05  6.82457082792235E-03
 cg2d: Sum(rhs),rhsMax =   6.32894709323834E-05  6.82531952598037E-03
 cg2d: Sum(rhs),rhsMax =   6.33246117995071E-05  6.82606107269130E-03
 cg2d: Sum(rhs),rhsMax =   6.33597710388068E-05  6.82679547669307E-03
 cg2d: Sum(rhs),rhsMax =   6.33949940708727E-05  6.82752274064256E-03
 cg2d: Sum(rhs),rhsMax =   6.34348043236563E-05  6.82824287433210E-03
 cg2d: Sum(rhs),rhsMax =   6.34746623524791E-05  6.82895587736200E-03
 cg2d: Sum(rhs),rhsMax =   6.35145570312893E-05  6.82966176243482E-03
 cg2d: Sum(rhs),rhsMax =   6.35544858117703E-05  6.83036053089973E-03
 cg2d: Sum(rhs),rhsMax =   6.35944759553629E-05  6.83105219011762E-03
 cg2d: Sum(rhs),rhsMax =   6.36344982789811E-05  6.83173674338696E-03
 cg2d: Sum(rhs),rhsMax =   6.36739427818604E-05  6.83248009981306E-03
 cg2d: Sum(rhs),rhsMax =   6.37134402794405E-05  6.83321780931938E-03
 cg2d: Sum(rhs),rhsMax =   6.37529693207268E-05  6.83394841092763E-03
 cg2d: Sum(rhs),rhsMax =   6.37925469785306E-05  6.83467190907808E-03
 cg2d: Sum(rhs),rhsMax =   6.38321661568658E-05  6.83538831066856E-03
 cg2d: Sum(rhs),rhsMax =   6.38718240055045E-05  6.83609762063337E-03
 cg2d: Sum(rhs),rhsMax =   6.39115404511453E-05  6.83679984603686E-03
 cg2d: Sum(rhs),rhsMax =   6.39512966767546E-05  6.83749499163974E-03
 cg2d: Sum(rhs),rhsMax =   6.39910797556916E-05  6.83818306401078E-03
 cg2d: Sum(rhs),rhsMax =   6.40309264901332E-05  6.83886406900984E-03
 cg2d: Sum(rhs),rhsMax =   6.40708150735894E-05  6.83953801294903E-03
 cg2d: Sum(rhs),rhsMax =   6.41107320204679E-05  6.84020490111626E-03
 cg2d: Sum(rhs),rhsMax =   6.41506951859340E-05  6.84086474088414E-03
 cg2d: Sum(rhs),rhsMax =   6.41907288602207E-05  6.84151753725282E-03
 cg2d: Sum(rhs),rhsMax =   6.42307757287295E-05  6.84216329733982E-03
 cg2d: Sum(rhs),rhsMax =   6.42708724089608E-05  6.84280202726325E-03
 cg2d: Sum(rhs),rhsMax =   6.43110134361633E-05  6.84343373227989E-03
 cg2d: Sum(rhs),rhsMax =   6.43511898495220E-05  6.84405841797864E-03
 cg2d: Sum(rhs),rhsMax =   6.43914337240996E-05  6.84467609449184E-03
 cg2d: Sum(rhs),rhsMax =   6.44316893848452E-05  6.84528676476171E-03
 cg2d: Sum(rhs),rhsMax =   6.44719779564935E-05  6.84589043734762E-03
 cg2d: Sum(rhs),rhsMax =   6.45167970149375E-05  6.84648711980238E-03
 cg2d: Sum(rhs),rhsMax =   6.45616119258408E-05  6.84707681227094E-03
 cg2d: Sum(rhs),rhsMax =   6.46064861003477E-05  6.84765952750462E-03
 cg2d: Sum(rhs),rhsMax =   6.46513876358453E-05  6.84823526772068E-03
 cg2d: Sum(rhs),rhsMax =   6.46963341627621E-05  6.84880404400572E-03
 cg2d: Sum(rhs),rhsMax =   6.47413069031636E-05  6.84936585914064E-03
 cg2d: Sum(rhs),rhsMax =   6.47863060127874E-05  6.84992072340369E-03
 cg2d: Sum(rhs),rhsMax =   6.48313445237067E-05  6.85046863905669E-03
 cg2d: Sum(rhs),rhsMax =   6.48764115009255E-05  6.85100961688631E-03
 cg2d: Sum(rhs),rhsMax =   6.49215124133697E-05  6.85154366099657E-03
 cg2d: Sum(rhs),rhsMax =   6.49666249507924E-05  6.85207078044253E-03
 cg2d: Sum(rhs),rhsMax =   6.50118084799913E-05  6.85259097910096E-03
 cg2d: Sum(rhs),rhsMax =   6.50570060374603E-05  6.85310426657266E-03
 cg2d: Sum(rhs),rhsMax =   6.51022439829994E-05  6.85361064843994E-03
 cg2d: Sum(rhs),rhsMax =   6.51475139212517E-05  6.85411013221668E-03
 cg2d: Sum(rhs),rhsMax =   6.51928091468025E-05  6.85460272421645E-03
 cg2d: Sum(rhs),rhsMax =   6.52381476333719E-05  6.85508843190125E-03
 cg2d: Sum(rhs),rhsMax =   6.52834958415501E-05  6.85556726214245E-03
 cg2d: Sum(rhs),rhsMax =   6.53288914942366E-05  6.85603922213610E-03
 cg2d: Sum(rhs),rhsMax =   6.53743173809167E-05  6.85650431873338E-03
 cg2d: Sum(rhs),rhsMax =   6.54197711421479E-05  6.85696255964917E-03
 cg2d: Sum(rhs),rhsMax =   6.54652460362771E-05  6.85741395097562E-03
 cg2d: Sum(rhs),rhsMax =   6.55107443259687E-05  6.85785850166462E-03
 cg2d: Sum(rhs),rhsMax =   6.55562984706495E-05  6.85829621655701E-03
 cg2d: Sum(rhs),rhsMax =   6.56018634742994E-05  6.85872710590821E-03
 cg2d: Sum(rhs),rhsMax =   6.56474740137027E-05  6.85915117350711E-03
(PID.TID 0000.0001)      cg2d_init_res =   1.26400359457677E-02
(PID.TID 0000.0001)      cg2d_iters(min,last) =      -1     395
(PID.TID 0000.0001)      cg2d_last_res =   9.73066199979305E-08
(PID.TID 0000.0001) // =======================================================
(PID.TID 0000.0001) // Begin MONITOR dynamic field statistics
(PID.TID 0000.0001) // =======================================================
(PID.TID 0000.0001) %MON time_tsnumber                =                  3528
(PID.TID 0000.0001) %MON time_secondsf                =   4.2336000000000E+06
(PID.TID 0000.0001) %MON dynstat_eta_max              =   6.9969226426400E-02
(PID.TID 0000.0001) %MON dynstat_eta_min              =  -1.1529507051962E-01
(PID.TID 0000.0001) %MON dynstat_eta_mean             =  -2.1444342007538E-09
(PID.TID 0000.0001) %MON dynstat_eta_sd               =   4.7720830509095E-02
(PID.TID 0000.0001) %MON dynstat_eta_del2             =   2.8523764291266E-07
(PID.TID 0000.0001) %MON dynstat_uvel_max             =   3.9260816056638E-02
(PID.TID 0000.0001) %MON dynstat_uvel_min             =  -5.6077365723597E-02
(PID.TID 0000.0001) %MON dynstat_uvel_mean            =   7.0787838557986E-08
(PID.TID 0000.0001) %MON dynstat_uvel_sd              =   1.9108050777899E-02
(PID.TID 0000.0001) %MON dynstat_uvel_del2            =   5.5896673909990E-07
(PID.TID 0000.0001) %MON dynstat_vvel_max             =   4.6455287402930E-02
(PID.TID 0000.0001) %MON dynstat_vvel_min             =  -3.7161478696641E-02
(PID.TID 0000.0001) %MON dynstat_vvel_mean            =  -1.8240190781297E-07
(PID.TID 0000.0001) %MON dynstat_vvel_sd              =   1.7430328617218E-02
(PID.TID 0000.0001) %MON dynstat_vvel_del2            =   8.0848183581355E-07
(PID.TID 0000.0001) %MON dynstat_wvel_max             =   2.5280532650650E-08
(PID.TID 0000.0001) %MON dynstat_wvel_min             =  -2.4428890650161E-08
(PID.TID 0000.0001) %MON dynstat_wvel_mean            =  -1.9286318483596E-21
(PID.TID 0000.0001) %MON dynstat_wvel_sd              =   1.1079920605384E-08
(PID.TID 0000.0001) %MON dynstat_wvel_del2            =   9.7049207778611E-14
(PID.TID 0000.0001) %MON dynstat_theta_max            =   2.0000000000000E+01
(PID.TID 0000.0001) %MON dynstat_theta_min            =   2.0000000000000E+01
(PID.TID 0000.0001) %MON dynstat_theta_mean           =   1.9999999999999E+01
(PID.TID 0000.0001) %MON dynstat_theta_sd             =   1.1972645097557E-12
(PID.TID 0000.0001) %MON dynstat_theta_del2           =   0.0000000000000E+00
(PID.TID 0000.0001) %MON dynstat_salt_max             =   3.0000000000000E+01
(PID.TID 0000.0001) %MON dynstat_salt_min             =   3.0000000000000E+01
(PID.TID 0000.0001) %MON dynstat_salt_mean            =   2.9999999999998E+01
(PID.TID 0000.0001) %MON dynstat_salt_sd              =   2.1529444893531E-12
(PID.TID 0000.0001) %MON dynstat_salt_del2            =   0.0000000000000E+00
(PID.TID 0000.0001) %MON trAdv_CFL_u_max              =   1.3454967215404E-02
(PID.TID 0000.0001) %MON trAdv_CFL_v_max              =   1.1145932452245E-02
(PID.TID 0000.0001) %MON trAdv_CFL_w_max              =   6.3030194088505E-09
(PID.TID 0000.0001) %MON advcfl_uvel_max              =   1.3458567773663E-02
(PID.TID 0000.0001) %MON advcfl_vvel_max              =   1.1149268976703E-02
(PID.TID 0000.0001) %MON advcfl_wvel_max              =   1.2134655672312E-08
(PID.TID 0000.0001) %MON advcfl_W_hf_max              =   0.0000000000000E+00
(PID.TID 0000.0001) %MON pe_b_mean                    =   2.3299669646619E-06
(PID.TID 0000.0001) %MON ke_max                       =   1.5723442045941E-03
(PID.TID 0000.0001) %MON ke_mean                      =   3.3296141697072E-04
(PID.TID 0000.0001) %MON ke_vol                       =   7.2529629296391E+15
(PID.TID 0000.0001) %MON vort_r_min                   =  -1.8288541631830E-06
(PID.TID 0000.0001) %MON vort_r_max                   =   2.3937060605617E-06
(PID.TID 0000.0001) %MON vort_a_mean                  =   1.0615000000000E-04
(PID.TID 0000.0001) %MON vort_a_sd                    =   3.5779638370424E-06
(PID.TID 0000.0001) %MON vort_p_mean                  =   1.1210870169429E-04
(PID.TID 0000.0001) %MON vort_p_sd                    =   2.1056010910015E-05
(PID.TID 0000.0001) %MON surfExpan_theta_mean         =  -3.8790401403385E-20
(PID.TID 0000.0001) %MON surfExpan_salt_mean          =  -5.8305871642901E-20
(PID.TID 0000.0001) // =======================================================
(PID.TID 0000.0001) // End MONITOR dynamic field statistics
(PID.TID 0000.0001) // =======================================================
 cg2d: Sum(rhs),rhsMax =   6.56931084799309E-05  6.85956843062134E-03
 cg2d: Sum(rhs),rhsMax =   6.57387615055191E-05  6.85997888035747E-03
 cg2d: Sum(rhs),rhsMax =   6.57844645878928E-05  6.86038253463854E-03
 cg2d: Sum(rhs),rhsMax =   6.58301777969996E-05  6.86077939625063E-03
 cg2d: Sum(rhs),rhsMax =   6.58759337273948E-05  6.86116947736252E-03
 cg2d: Sum(rhs),rhsMax =   6.59212782334938E-05  6.86159896593205E-03
 cg2d: Sum(rhs),rhsMax =   6.59664385553153E-05  6.86204234686374E-03
 cg2d: Sum(rhs),rhsMax =   6.60116449511105E-05  6.86247893550330E-03
 cg2d: Sum(rhs),rhsMax =   6.60568613056894E-05  6.86290873950047E-03
 cg2d: Sum(rhs),rhsMax =   6.61021093722493E-05  6.86333176578472E-03
 cg2d: Sum(rhs),rhsMax =   6.61473797800502E-05  6.86374802233749E-03
 cg2d: Sum(rhs),rhsMax =   6.61926812085686E-05  6.86415751596351E-03
 cg2d: Sum(rhs),rhsMax =   6.62380213166788E-05  6.86456025482596E-03
 cg2d: Sum(rhs),rhsMax =   6.62833833385893E-05  6.86495624574209E-03
 cg2d: Sum(rhs),rhsMax =   6.63287685518123E-05  6.86534549693564E-03
 cg2d: Sum(rhs),rhsMax =   6.63741534609591E-05  6.86572801533297E-03
 cg2d: Sum(rhs),rhsMax =   6.64196120671509E-05  6.86610380914400E-03
 cg2d: Sum(rhs),rhsMax =   6.64650624894088E-05  6.86647288546619E-03
 cg2d: Sum(rhs),rhsMax =   6.65105509414145E-05  6.86683525244902E-03
 cg2d: Sum(rhs),rhsMax =   6.65560593035087E-05  6.86719091738037E-03
 cg2d: Sum(rhs),rhsMax =   6.66016301569400E-05  6.86753988836693E-03
 cg2d: Sum(rhs),rhsMax =   6.66471985537370E-05  6.86788217283833E-03
 cg2d: Sum(rhs),rhsMax =   6.66927851980101E-05  6.86821777892353E-03
 cg2d: Sum(rhs),rhsMax =   6.67383904752765E-05  6.86854671411757E-03
 cg2d: Sum(rhs),rhsMax =   6.67840244286378E-05  6.86886898665837E-03
 cg2d: Sum(rhs),rhsMax =   6.68296745622624E-05  6.86918460400344E-03
 cg2d: Sum(rhs),rhsMax =   6.68753629484405E-05  6.86949357461925E-03
 cg2d: Sum(rhs),rhsMax =   6.69210463382945E-05  6.86979590579993E-03
 cg2d: Sum(rhs),rhsMax =   6.69667921745533E-05  6.87009160634910E-03
 cg2d: Sum(rhs),rhsMax =   6.70125450585083E-05  6.87038068330929E-03
 cg2d: Sum(rhs),rhsMax =   6.70583205207489E-05  6.87066314589355E-03
 cg2d: Sum(rhs),rhsMax =   6.71041341063819E-05  6.87093900084906E-03
 cg2d: Sum(rhs),rhsMax =   6.71499429141672E-05  6.87120825779112E-03
 cg2d: Sum(rhs),rhsMax =   6.71957870944325E-05  6.87147092322454E-03
 cg2d: Sum(rhs),rhsMax =   6.72416726394042E-05  6.87172700708145E-03
 cg2d: Sum(rhs),rhsMax =   6.72875626817346E-05  6.87197651572460E-03
 cg2d: Sum(rhs),rhsMax =   6.73334841975767E-05  6.87221945930745E-03
 cg2d: Sum(rhs),rhsMax =   6.73841395038908E-05  6.87245584462219E-03
 cg2d: Sum(rhs),rhsMax =   6.74348128334671E-05  6.87268568089078E-03
 cg2d: Sum(rhs),rhsMax =   6.74854994528241E-05  6.87290897534681E-03
 cg2d: Sum(rhs),rhsMax =   6.75361782155231E-05  6.87312573754756E-03
 cg2d: Sum(rhs),rhsMax =   6.75868813035784E-05  6.87333597475213E-03
 cg2d: Sum(rhs),rhsMax =   6.76375965460983E-05  6.87353969637189E-03
 cg2d: Sum(rhs),rhsMax =   6.76883364633331E-05  6.87373691050843E-03
 cg2d: Sum(rhs),rhsMax =   6.77390702399755E-05  6.87392762557882E-03
 cg2d: Sum(rhs),rhsMax =   6.77898303325457E-05  6.87411185001946E-03
 cg2d: Sum(rhs),rhsMax =   6.78405939176100E-05  6.87428959278764E-03
 cg2d: Sum(rhs),rhsMax =   6.78913834794440E-05  6.87446086188669E-03
 cg2d: Sum(rhs),rhsMax =   6.79421619377086E-05  6.87462566648618E-03
 cg2d: Sum(rhs),rhsMax =   6.79929615509567E-05  6.87478401445849E-03
 cg2d: Sum(rhs),rhsMax =   6.80437931533649E-05  6.87493591522926E-03
 cg2d: Sum(rhs),rhsMax =   6.80946118492075E-05  6.87508137670760E-03
 cg2d: Sum(rhs),rhsMax =   6.81454505012578E-05  6.87522040821364E-03
 cg2d: Sum(rhs),rhsMax =   6.81963047624939E-05  6.87535301821955E-03
 cg2d: Sum(rhs),rhsMax =   6.82471569909602E-05  6.87547921621024E-03
 cg2d: Sum(rhs),rhsMax =   6.82980361420599E-05  6.87559900988512E-03
 cg2d: Sum(rhs),rhsMax =   6.83489167170870E-05  6.87571240884707E-03
 cg2d: Sum(rhs),rhsMax =   6.83997211202211E-05  6.87582760902121E-03
 cg2d: Sum(rhs),rhsMax =   6.84499796385512E-05  6.87599426675026E-03
 cg2d: Sum(rhs),rhsMax =   6.85002234576833E-05  6.87615451522728E-03
 cg2d: Sum(rhs),rhsMax =   6.85504947787628E-05  6.87630836357121E-03
 cg2d: Sum(rhs),rhsMax =   6.86007561722592E-05  6.87645581834951E-03
 cg2d: Sum(rhs),rhsMax =   6.86510432276418E-05  6.87659689271103E-03
 cg2d: Sum(rhs),rhsMax =   6.87013336856369E-05  6.87673159345026E-03
 cg2d: Sum(rhs),rhsMax =   6.87516417832452E-05  6.87685992856371E-03
 cg2d: Sum(rhs),rhsMax =   6.88019453251947E-05  6.87698190626487E-03
 cg2d: Sum(rhs),rhsMax =   6.88522666650697E-05  6.87709753557648E-03
 cg2d: Sum(rhs),rhsMax =   6.89025968237051E-05  6.87720682617574E-03
 cg2d: Sum(rhs),rhsMax =   6.89529138937820E-05  6.87730978936439E-03
 cg2d: Sum(rhs),rhsMax =   6.90032446609787E-05  6.87740643014531E-03
 cg2d: Sum(rhs),rhsMax =   6.90535965288796E-05  6.87749675974862E-03
 cg2d: Sum(rhs),rhsMax =   6.91039498560740E-05  6.87758078514058E-03
(PID.TID 0000.0001)      cg2d_init_res =   1.23783248219387E-02
(PID.TID 0000.0001)      cg2d_iters(min,last) =      -1     394
(PID.TID 0000.0001)      cg2d_last_res =   9.60618653150366E-08
(PID.TID 0000.0001) // =======================================================
(PID.TID 0000.0001) // Begin MONITOR dynamic field statistics
(PID.TID 0000.0001) // =======================================================
(PID.TID 0000.0001) %MON time_tsnumber                =                  3600
(PID.TID 0000.0001) %MON time_secondsf                =   4.3200000000000E+06
(PID.TID 0000.0001) %MON dynstat_eta_max              =   7.0783665871943E-02
(PID.TID 0000.0001) %MON dynstat_eta_min              =  -1.1729027942586E-01
(PID.TID 0000.0001) %MON dynstat_eta_mean             =  -2.2633724458223E-09
(PID.TID 0000.0001) %MON dynstat_eta_sd               =   4.8416660645649E-02
(PID.TID 0000.0001) %MON dynstat_eta_del2             =   2.9047865632317E-07
(PID.TID 0000.0001) %MON dynstat_uvel_max             =   4.0138290029804E-02
(PID.TID 0000.0001) %MON dynstat_uvel_min             =  -5.7154770170855E-02
(PID.TID 0000.0001) %MON dynstat_uvel_mean            =   8.7324436213842E-08
(PID.TID 0000.0001) %MON dynstat_uvel_sd              =   1.9384652382304E-02
(PID.TID 0000.0001) %MON dynstat_uvel_del2            =   5.6613406950127E-07
(PID.TID 0000.0001) %MON dynstat_vvel_max             =   4.7133001114154E-02
(PID.TID 0000.0001) %MON dynstat_vvel_min             =  -3.7930451220754E-02
(PID.TID 0000.0001) %MON dynstat_vvel_mean            =  -1.8615871291404E-07
(PID.TID 0000.0001) %MON dynstat_vvel_sd              =   1.7754528144998E-02
(PID.TID 0000.0001) %MON dynstat_vvel_del2            =   8.1377656207412E-07
(PID.TID 0000.0001) %MON dynstat_wvel_max             =   2.3605307731777E-08
(PID.TID 0000.0001) %MON dynstat_wvel_min             =  -2.4141928902827E-08
(PID.TID 0000.0001) %MON dynstat_wvel_mean            =  -3.1473398700296E-21
(PID.TID 0000.0001) %MON dynstat_wvel_sd              =   1.0979487081127E-08
(PID.TID 0000.0001) %MON dynstat_wvel_del2            =   9.4896168163304E-14
(PID.TID 0000.0001) %MON dynstat_theta_max            =   2.0000000000000E+01
(PID.TID 0000.0001) %MON dynstat_theta_min            =   2.0000000000000E+01
(PID.TID 0000.0001) %MON dynstat_theta_mean           =   1.9999999999999E+01
(PID.TID 0000.0001) %MON dynstat_theta_sd             =   1.1972645097557E-12
(PID.TID 0000.0001) %MON dynstat_theta_del2           =   0.0000000000000E+00
(PID.TID 0000.0001) %MON dynstat_salt_max             =   3.0000000000000E+01
(PID.TID 0000.0001) %MON dynstat_salt_min             =   3.0000000000000E+01
(PID.TID 0000.0001) %MON dynstat_salt_mean            =   2.9999999999998E+01
(PID.TID 0000.0001) %MON dynstat_salt_sd              =   2.1529444893531E-12
(PID.TID 0000.0001) %MON dynstat_salt_del2            =   0.0000000000000E+00
(PID.TID 0000.0001) %MON trAdv_CFL_u_max              =   1.3713576175772E-02
(PID.TID 0000.0001) %MON trAdv_CFL_v_max              =   1.1309184306609E-02
(PID.TID 0000.0001) %MON trAdv_CFL_w_max              =   5.8786919780090E-09
(PID.TID 0000.0001) %MON advcfl_uvel_max              =   1.3717144841005E-02
(PID.TID 0000.0001) %MON advcfl_vvel_max              =   1.1311920267397E-02
(PID.TID 0000.0001) %MON advcfl_wvel_max              =   1.1588125873357E-08
(PID.TID 0000.0001) %MON advcfl_W_hf_max              =   0.0000000000000E+00
(PID.TID 0000.0001) %MON pe_b_mean                    =   2.3984100841392E-06
(PID.TID 0000.0001) %MON ke_max                       =   1.6334836064213E-03
(PID.TID 0000.0001) %MON ke_mean                      =   3.4393880881962E-04
(PID.TID 0000.0001) %MON ke_vol                       =   7.2529629296391E+15
(PID.TID 0000.0001) %MON vort_r_min                   =  -1.8527078996889E-06
(PID.TID 0000.0001) %MON vort_r_max                   =   2.4070420695407E-06
(PID.TID 0000.0001) %MON vort_a_mean                  =   1.0615000000000E-04
(PID.TID 0000.0001) %MON vort_a_sd                    =   3.5783926425312E-06
(PID.TID 0000.0001) %MON vort_p_mean                  =   1.1210870169429E-04
(PID.TID 0000.0001) %MON vort_p_sd                    =   2.1056119022737E-05
(PID.TID 0000.0001) %MON surfExpan_theta_mean         =  -6.2879908901607E-20
(PID.TID 0000.0001) %MON surfExpan_salt_mean          =  -9.4345262355087E-20
(PID.TID 0000.0001) // =======================================================
(PID.TID 0000.0001) // End MONITOR dynamic field statistics
(PID.TID 0000.0001) // =======================================================
 cg2d: Sum(rhs),rhsMax =   6.91543145185007E-05  6.87765851713728E-03
 cg2d: Sum(rhs),rhsMax =   6.92046934914294E-05  6.87772996374721E-03
 cg2d: Sum(rhs),rhsMax =   6.92550753307441E-05  6.87779513399091E-03
 cg2d: Sum(rhs),rhsMax =   6.93054487421810E-05  6.87785403961567E-03
 cg2d: Sum(rhs),rhsMax =   6.93558283827093E-05  6.87790668917818E-03
 cg2d: Sum(rhs),rhsMax =   6.94062315974952E-05  6.87795308806252E-03
 cg2d: Sum(rhs),rhsMax =   6.94566291981244E-05  6.87799324903787E-03
 cg2d: Sum(rhs),rhsMax =   6.95070385271900E-05  6.87802717801811E-03
 cg2d: Sum(rhs),rhsMax =   6.95618298651173E-05  6.87805488757626E-03
 cg2d: Sum(rhs),rhsMax =   6.96166192426795E-05  6.87807638655433E-03
 cg2d: Sum(rhs),rhsMax =   6.96714146132429E-05  6.87809168376741E-03
 cg2d: Sum(rhs),rhsMax =   6.97262101814963E-05  6.87810078778832E-03
 cg2d: Sum(rhs),rhsMax =   6.97809895995895E-05  6.87810370926358E-03
 cg2d: Sum(rhs),rhsMax =   6.98357769203899E-05  6.87810045512672E-03
 cg2d: Sum(rhs),rhsMax =   6.98905492035650E-05  6.87809103687089E-03
 cg2d: Sum(rhs),rhsMax =   6.99453353935346E-05  6.87807546519861E-03
 cg2d: Sum(rhs),rhsMax =   7.00000832533870E-05  6.87805374847528E-03
 cg2d: Sum(rhs),rhsMax =   7.00548637857681E-05  6.87802589273405E-03
 cg2d: Sum(rhs),rhsMax =   7.01096301406350E-05  6.87799191190421E-03
 cg2d: Sum(rhs),rhsMax =   7.01643966540097E-05  6.87795181395425E-03
 cg2d: Sum(rhs),rhsMax =   7.02191791304100E-05  6.87790560929592E-03
 cg2d: Sum(rhs),rhsMax =   7.02739348055802E-05  6.87785330643558E-03
 cg2d: Sum(rhs),rhsMax =   7.03287033910868E-05  6.87779491538352E-03
 cg2d: Sum(rhs),rhsMax =   7.03834626039446E-05  6.87773044590954E-03
 cg2d: Sum(rhs),rhsMax =   7.04382043089820E-05  6.87765990703080E-03
 cg2d: Sum(rhs),rhsMax =   7.04929491293456E-05  6.87758331014121E-03
 cg2d: Sum(rhs),rhsMax =   7.05477062918456E-05  6.87750066184337E-03
 cg2d: Sum(rhs),rhsMax =   7.06024285247599E-05  6.87741197596974E-03
 cg2d: Sum(rhs),rhsMax =   7.06571790181514E-05  6.87731725802369E-03
 cg2d: Sum(rhs),rhsMax =   7.07118774425251E-05  6.87721652279679E-03
 cg2d: Sum(rhs),rhsMax =   7.07666092375032E-05  6.87710977403934E-03
 cg2d: Sum(rhs),rhsMax =   7.08213189525523E-05  6.87699702729365E-03
 cg2d: Sum(rhs),rhsMax =   7.08760450854121E-05  6.87687828915504E-03
 cg2d: Sum(rhs),rhsMax =   7.09307573182006E-05  6.87675357244764E-03
 cg2d: Sum(rhs),rhsMax =   7.09854744074890E-05  6.87662288186372E-03
 cg2d: Sum(rhs),rhsMax =   7.10401880885505E-05  6.87648623313001E-03
 cg2d: Sum(rhs),rhsMax =   7.10949050180439E-05  6.87634363122655E-03
 cg2d: Sum(rhs),rhsMax =   7.11496056744693E-05  6.87619509104133E-03
 cg2d: Sum(rhs),rhsMax =   7.12042465143112E-05  6.87604543500096E-03
 cg2d: Sum(rhs),rhsMax =   7.12582701984576E-05  6.87594987047375E-03
 cg2d: Sum(rhs),rhsMax =   7.13122714595905E-05  6.87584834407069E-03
 cg2d: Sum(rhs),rhsMax =   7.13662891598881E-05  6.87574086826439E-03
 cg2d: Sum(rhs),rhsMax =   7.14202653499681E-05  6.87562745094902E-03
 cg2d: Sum(rhs),rhsMax =   7.14742717528687E-05  6.87550810342981E-03
 cg2d: Sum(rhs),rhsMax =   7.15282430467476E-05  6.87538283467572E-03
 cg2d: Sum(rhs),rhsMax =   7.15822204631622E-05  6.87525165527317E-03
 cg2d: Sum(rhs),rhsMax =   7.16361678789277E-05  6.87511457371292E-03
 cg2d: Sum(rhs),rhsMax =   7.16901430140122E-05  6.87497160133487E-03
 cg2d: Sum(rhs),rhsMax =   7.17440834179044E-05  6.87482275154857E-03
 cg2d: Sum(rhs),rhsMax =   7.17980525274100E-05  6.87466802771655E-03
 cg2d: Sum(rhs),rhsMax =   7.18520035126883E-05  6.87450744573016E-03
 cg2d: Sum(rhs),rhsMax =   7.19059467395033E-05  6.87434101162344E-03
 cg2d: Sum(rhs),rhsMax =   7.19599037240972E-05  6.87416873566548E-03
 cg2d: Sum(rhs),rhsMax =   7.20138204209743E-05  6.87399063084987E-03
 cg2d: Sum(rhs),rhsMax =   7.20677676581535E-05  6.87380670392154E-03
 cg2d: Sum(rhs),rhsMax =   7.21216635307864E-05  6.87361696949518E-03
 cg2d: Sum(rhs),rhsMax =   7.21756040230406E-05  6.87342143304240E-03
 cg2d: Sum(rhs),rhsMax =   7.22294902303876E-05  6.87322010955077E-03
 cg2d: Sum(rhs),rhsMax =   7.22834091150429E-05  6.87301300349433E-03
 cg2d: Sum(rhs),rhsMax =   7.23372989133771E-05  6.87280013146115E-03
 cg2d: Sum(rhs),rhsMax =   7.23912090011981E-05  6.87258149763735E-03
 cg2d: Sum(rhs),rhsMax =   7.24450865196603E-05  6.87235711926021E-03
 cg2d: Sum(rhs),rhsMax =   7.24989789322016E-05  6.87212699899817E-03
 cg2d: Sum(rhs),rhsMax =   7.25528629483400E-05  6.87189115447472E-03
 cg2d: Sum(rhs),rhsMax =   7.26067406405973E-05  6.87164958960941E-03
 cg2d: Sum(rhs),rhsMax =   7.26606015560602E-05  6.87140231983157E-03
 cg2d: Sum(rhs),rhsMax =   7.27144439848096E-05  6.87114935238904E-03
 cg2d: Sum(rhs),rhsMax =   7.27683054534112E-05  6.87089069909806E-03
 cg2d: Sum(rhs),rhsMax =   7.28220972405365E-05  6.87062636986534E-03
 cg2d: Sum(rhs),rhsMax =   7.28807664624933E-05  6.87035637567105E-03
 cg2d: Sum(rhs),rhsMax =   7.29394183436533E-05  6.87008072822499E-03
 cg2d: Sum(rhs),rhsMax =   7.29980410559819E-05  6.86979943599461E-03
(PID.TID 0000.0001)      cg2d_init_res =   1.22003535085249E-02
(PID.TID 0000.0001)      cg2d_iters(min,last) =      -1     392
(PID.TID 0000.0001)      cg2d_last_res =   9.96561752788851E-08
(PID.TID 0000.0001) // =======================================================
(PID.TID 0000.0001) // Begin MONITOR dynamic field statistics
(PID.TID 0000.0001) // =======================================================
(PID.TID 0000.0001) %MON time_tsnumber                =                  3672
(PID.TID 0000.0001) %MON time_secondsf                =   4.4064000000000E+06
(PID.TID 0000.0001) %MON dynstat_eta_max              =   7.1435189659371E-02
(PID.TID 0000.0001) %MON dynstat_eta_min              =  -1.1927718074219E-01
(PID.TID 0000.0001) %MON dynstat_eta_mean             =  -2.3882617246402E-09
(PID.TID 0000.0001) %MON dynstat_eta_sd               =   4.9102680244757E-02
(PID.TID 0000.0001) %MON dynstat_eta_del2             =   2.9550703790931E-07
(PID.TID 0000.0001) %MON dynstat_uvel_max             =   4.1074092191143E-02
(PID.TID 0000.0001) %MON dynstat_uvel_min             =  -5.8215562301132E-02
(PID.TID 0000.0001) %MON dynstat_uvel_mean            =   9.7296680199548E-08
(PID.TID 0000.0001) %MON dynstat_uvel_sd              =   1.9671696637626E-02
(PID.TID 0000.0001) %MON dynstat_uvel_del2            =   5.7348030299098E-07
(PID.TID 0000.0001) %MON dynstat_vvel_max             =   4.7624867890478E-02
(PID.TID 0000.0001) %MON dynstat_vvel_min             =  -3.8683554223783E-02
(PID.TID 0000.0001) %MON dynstat_vvel_mean            =  -1.9329881782618E-07
(PID.TID 0000.0001) %MON dynstat_vvel_sd              =   1.8056625113913E-02
(PID.TID 0000.0001) %MON dynstat_vvel_del2            =   8.1675529011150E-07
(PID.TID 0000.0001) %MON dynstat_wvel_max             =   2.1959500692319E-08
(PID.TID 0000.0001) %MON dynstat_wvel_min             =  -2.3569911736995E-08
(PID.TID 0000.0001) %MON dynstat_wvel_mean            =   1.6000740318349E-21
(PID.TID 0000.0001) %MON dynstat_wvel_sd              =   1.0878946297375E-08
(PID.TID 0000.0001) %MON dynstat_wvel_del2            =   9.2940821491268E-14
(PID.TID 0000.0001) %MON dynstat_theta_max            =   2.0000000000000E+01
(PID.TID 0000.0001) %MON dynstat_theta_min            =   2.0000000000000E+01
(PID.TID 0000.0001) %MON dynstat_theta_mean           =   1.9999999999999E+01
(PID.TID 0000.0001) %MON dynstat_theta_sd             =   1.1972645097557E-12
(PID.TID 0000.0001) %MON dynstat_theta_del2           =   0.0000000000000E+00
(PID.TID 0000.0001) %MON dynstat_salt_max             =   3.0000000000000E+01
(PID.TID 0000.0001) %MON dynstat_salt_min             =   3.0000000000000E+01
(PID.TID 0000.0001) %MON dynstat_salt_mean            =   2.9999999999998E+01
(PID.TID 0000.0001) %MON dynstat_salt_sd              =   2.1529444893531E-12
(PID.TID 0000.0001) %MON dynstat_salt_del2            =   0.0000000000000E+00
(PID.TID 0000.0001) %MON trAdv_CFL_u_max              =   1.3968230940635E-02
(PID.TID 0000.0001) %MON trAdv_CFL_v_max              =   1.1427916687850E-02
(PID.TID 0000.0001) %MON trAdv_CFL_w_max              =   5.4638851309005E-09
(PID.TID 0000.0001) %MON advcfl_uvel_max              =   1.3971734952272E-02
(PID.TID 0000.0001) %MON advcfl_vvel_max              =   1.1429968293715E-02
(PID.TID 0000.0001) %MON advcfl_wvel_max              =   1.1313557633758E-08
(PID.TID 0000.0001) %MON advcfl_W_hf_max              =   0.0000000000000E+00
(PID.TID 0000.0001) %MON pe_b_mean                    =   2.4668581305783E-06
(PID.TID 0000.0001) %MON ke_max                       =   1.6946746132948E-03
(PID.TID 0000.0001) %MON ke_mean                      =   3.5490389833349E-04
(PID.TID 0000.0001) %MON ke_vol                       =   7.2529629296391E+15
(PID.TID 0000.0001) %MON vort_r_min                   =  -1.8756002989976E-06
(PID.TID 0000.0001) %MON vort_r_max                   =   2.4107577038513E-06
(PID.TID 0000.0001) %MON vort_a_mean                  =   1.0615000000000E-04
(PID.TID 0000.0001) %MON vort_a_sd                    =   3.5788082541408E-06
(PID.TID 0000.0001) %MON vort_p_mean                  =   1.1210870169429E-04
(PID.TID 0000.0001) %MON vort_p_sd                    =   2.1056210133139E-05
(PID.TID 0000.0001) %MON surfExpan_theta_mean         =   3.2052047871824E-20
(PID.TID 0000.0001) %MON surfExpan_salt_mean          =   4.8129959415275E-20
(PID.TID 0000.0001) // =======================================================
(PID.TID 0000.0001) // End MONITOR dynamic field statistics
(PID.TID 0000.0001) // =======================================================
 cg2d: Sum(rhs),rhsMax =   7.30566655893403E-05  6.86951250998733E-03
 cg2d: Sum(rhs),rhsMax =   7.31152625543336E-05  6.86921996261007E-03
 cg2d: Sum(rhs),rhsMax =   7.31738517541348E-05  6.86892180080946E-03
 cg2d: Sum(rhs),rhsMax =   7.32324366652950E-05  6.86861804050394E-03
 cg2d: Sum(rhs),rhsMax =   7.32910031418389E-05  6.86830868601223E-03
 cg2d: Sum(rhs),rhsMax =   7.33495527009418E-05  6.86799375296880E-03
 cg2d: Sum(rhs),rhsMax =   7.34080934042900E-05  6.86767325087480E-03
 cg2d: Sum(rhs),rhsMax =   7.34666268814243E-05  6.86734719010917E-03
 cg2d: Sum(rhs),rhsMax =   7.35251646922105E-05  6.86701557994021E-03
 cg2d: Sum(rhs),rhsMax =   7.35836517516087E-05  6.86667843281999E-03
 cg2d: Sum(rhs),rhsMax =   7.36421487752383E-05  6.86633575957534E-03
 cg2d: Sum(rhs),rhsMax =   7.37005833241363E-05  6.86598756937407E-03
 cg2d: Sum(rhs),rhsMax =   7.37590737012721E-05  6.86563387573231E-03
 cg2d: Sum(rhs),rhsMax =   7.38175232723672E-05  6.86527468939586E-03
 cg2d: Sum(rhs),rhsMax =   7.38759603879217E-05  6.86491001899271E-03
 cg2d: Sum(rhs),rhsMax =   7.39344030608511E-05  6.86453987607465E-03
 cg2d: Sum(rhs),rhsMax =   7.39928111681940E-05  6.86416426971866E-03
 cg2d: Sum(rhs),rhsMax =   7.40512383974553E-05  6.86378321242303E-03
 cg2d: Sum(rhs),rhsMax =   7.41096431906016E-05  6.86339671858292E-03
 cg2d: Sum(rhs),rhsMax =   7.41680256782667E-05  6.86300479484318E-03
 cg2d: Sum(rhs),rhsMax =   7.42262147092007E-05  6.86262574369774E-03
 cg2d: Sum(rhs),rhsMax =   7.42838955086135E-05  6.86228623017164E-03
 cg2d: Sum(rhs),rhsMax =   7.43415499331319E-05  6.86194126062788E-03
 cg2d: Sum(rhs),rhsMax =   7.43992059154927E-05  6.86159084912155E-03
 cg2d: Sum(rhs),rhsMax =   7.44568413614229E-05  6.86123500578282E-03
 cg2d: Sum(rhs),rhsMax =   7.45144852870041E-05  6.86087373966149E-03
 cg2d: Sum(rhs),rhsMax =   7.45720863399172E-05  6.86050706241624E-03
 cg2d: Sum(rhs),rhsMax =   7.46296925831611E-05  6.86013498432913E-03
 cg2d: Sum(rhs),rhsMax =   7.46872913551630E-05  6.85975751743439E-03
 cg2d: Sum(rhs),rhsMax =   7.47448816326595E-05  6.85937467126420E-03
 cg2d: Sum(rhs),rhsMax =   7.48024532557343E-05  6.85898645743728E-03
 cg2d: Sum(rhs),rhsMax =   7.48600177519392E-05  6.85859288887703E-03
 cg2d: Sum(rhs),rhsMax =   7.49175521825929E-05  6.85819397463553E-03
 cg2d: Sum(rhs),rhsMax =   7.49750938347834E-05  6.85778972580735E-03
 cg2d: Sum(rhs),rhsMax =   7.50326134600931E-05  6.85738015355487E-03
 cg2d: Sum(rhs),rhsMax =   7.50901203797603E-05  6.85696526877510E-03
 cg2d: Sum(rhs),rhsMax =   7.51476270069739E-05  6.85654508271418E-03
 cg2d: Sum(rhs),rhsMax =   7.52051156134152E-05  6.85611960555444E-03
 cg2d: Sum(rhs),rhsMax =   7.52625927121940E-05  6.85568884957033E-03
 cg2d: Sum(rhs),rhsMax =   7.53200686713514E-05  6.85525282586151E-03
 cg2d: Sum(rhs),rhsMax =   7.53775316949634E-05  6.85481154481575E-03
 cg2d: Sum(rhs),rhsMax =   7.54349951156840E-05  6.85436501855912E-03
 cg2d: Sum(rhs),rhsMax =   7.54924377966587E-05  6.85391325672115E-03
 cg2d: Sum(rhs),rhsMax =   7.55498930276881E-05  6.85345627290693E-03
 cg2d: Sum(rhs),rhsMax =   7.56072808794921E-05  6.85299407603555E-03
 cg2d: Sum(rhs),rhsMax =   7.56646798650306E-05  6.85252667748285E-03
 cg2d: Sum(rhs),rhsMax =   7.57220817959973E-05  6.85205409142974E-03
 cg2d: Sum(rhs),rhsMax =   7.57794591200009E-05  6.85157632580014E-03
 cg2d: Sum(rhs),rhsMax =   7.58368527812802E-05  6.85109339183413E-03
 cg2d: Sum(rhs),rhsMax =   7.58942045062569E-05  6.85060529998831E-03
 cg2d: Sum(rhs),rhsMax =   7.59515675121058E-05  6.85011206695762E-03
 cg2d: Sum(rhs),rhsMax =   7.60089212213993E-05  6.84961370018296E-03
 cg2d: Sum(rhs),rhsMax =   7.60662684355208E-05  6.84911021051221E-03
 cg2d: Sum(rhs),rhsMax =   7.61235935032296E-05  6.84860161106889E-03
 cg2d: Sum(rhs),rhsMax =   7.61808970824607E-05  6.84808791091760E-03
 cg2d: Sum(rhs),rhsMax =   7.62382045112974E-05  6.84756912432631E-03
 cg2d: Sum(rhs),rhsMax =   7.62954975976004E-05  6.84704525899311E-03
 cg2d: Sum(rhs),rhsMax =   7.63527857586405E-05  6.84651632974327E-03
 cg2d: Sum(rhs),rhsMax =   7.64100582882625E-05  6.84598234638756E-03
 cg2d: Sum(rhs),rhsMax =   7.64673493276382E-05  6.84544332186621E-03
 cg2d: Sum(rhs),rhsMax =   7.65246076165908E-05  6.84489926579961E-03
 cg2d: Sum(rhs),rhsMax =   7.65818601978180E-05  6.84435019102740E-03
 cg2d: Sum(rhs),rhsMax =   7.66391126476229E-05  6.84379610848827E-03
 cg2d: Sum(rhs),rhsMax =   7.66963226324934E-05  6.84323702856199E-03
 cg2d: Sum(rhs),rhsMax =   7.67535459601115E-05  6.84267296592229E-03
 cg2d: Sum(rhs),rhsMax =   7.68107563575622E-05  6.84210393137414E-03
 cg2d: Sum(rhs),rhsMax =   7.68679704544854E-05  6.84152993341919E-03
 cg2d: Sum(rhs),rhsMax =   7.69251528823572E-05  6.84095098641105E-03
 cg2d: Sum(rhs),rhsMax =   7.69823697740002E-05  6.84036709888595E-03
 cg2d: Sum(rhs),rhsMax =   7.70395438963074E-05  6.83977828515165E-03
 cg2d: Sum(rhs),rhsMax =   7.70967124854088E-05  6.83918455600393E-03
 cg2d: Sum(rhs),rhsMax =   7.71538674109633E-05  6.83858592544174E-03
(PID.TID 0000.0001)      cg2d_init_res =   1.20992366751965E-02
(PID.TID 0000.0001)      cg2d_iters(min,last) =      -1     392
(PID.TID 0000.0001)      cg2d_last_res =   9.55937692913055E-08
(PID.TID 0000.0001) // =======================================================
(PID.TID 0000.0001) // Begin MONITOR dynamic field statistics
(PID.TID 0000.0001) // =======================================================
(PID.TID 0000.0001) %MON time_tsnumber                =                  3744
(PID.TID 0000.0001) %MON time_secondsf                =   4.4928000000000E+06
(PID.TID 0000.0001) %MON dynstat_eta_max              =   7.1901888830352E-02
(PID.TID 0000.0001) %MON dynstat_eta_min              =  -1.2125907085994E-01
(PID.TID 0000.0001) %MON dynstat_eta_mean             =  -2.5124843427325E-09
(PID.TID 0000.0001) %MON dynstat_eta_sd               =   4.9782003601332E-02
(PID.TID 0000.0001) %MON dynstat_eta_del2             =   3.0031712348097E-07
(PID.TID 0000.0001) %MON dynstat_uvel_max             =   4.2068540211770E-02
(PID.TID 0000.0001) %MON dynstat_uvel_min             =  -5.9256816358592E-02
(PID.TID 0000.0001) %MON dynstat_uvel_mean            =   1.0049199922499E-07
(PID.TID 0000.0001) %MON dynstat_uvel_sd              =   1.9969434705300E-02
(PID.TID 0000.0001) %MON dynstat_uvel_del2            =   5.8092279963237E-07
(PID.TID 0000.0001) %MON dynstat_vvel_max             =   4.7931506814687E-02
(PID.TID 0000.0001) %MON dynstat_vvel_min             =  -3.9417526291321E-02
(PID.TID 0000.0001) %MON dynstat_vvel_mean            =  -2.0271896747676E-07
(PID.TID 0000.0001) %MON dynstat_vvel_sd              =   1.8337217907081E-02
(PID.TID 0000.0001) %MON dynstat_vvel_del2            =   8.1773323826418E-07
(PID.TID 0000.0001) %MON dynstat_wvel_max             =   2.3151611681678E-08
(PID.TID 0000.0001) %MON dynstat_wvel_min             =  -2.3161752449232E-08
(PID.TID 0000.0001) %MON dynstat_wvel_mean            =  -5.3733874570357E-23
(PID.TID 0000.0001) %MON dynstat_wvel_sd              =   1.0774384811924E-08
(PID.TID 0000.0001) %MON dynstat_wvel_del2            =   9.1255184582531E-14
(PID.TID 0000.0001) %MON dynstat_theta_max            =   2.0000000000000E+01
(PID.TID 0000.0001) %MON dynstat_theta_min            =   2.0000000000000E+01
(PID.TID 0000.0001) %MON dynstat_theta_mean           =   1.9999999999999E+01
(PID.TID 0000.0001) %MON dynstat_theta_sd             =   1.1972645097557E-12
(PID.TID 0000.0001) %MON dynstat_theta_del2           =   0.0000000000000E+00
(PID.TID 0000.0001) %MON dynstat_salt_max             =   3.0000000000000E+01
(PID.TID 0000.0001) %MON dynstat_salt_min             =   3.0000000000000E+01
(PID.TID 0000.0001) %MON dynstat_salt_mean            =   2.9999999999998E+01
(PID.TID 0000.0001) %MON dynstat_salt_sd              =   2.1529444893531E-12
(PID.TID 0000.0001) %MON dynstat_salt_del2            =   0.0000000000000E+00
(PID.TID 0000.0001) %MON trAdv_CFL_u_max              =   1.4218197464535E-02
(PID.TID 0000.0001) %MON trAdv_CFL_v_max              =   1.1502059290884E-02
(PID.TID 0000.0001) %MON trAdv_CFL_w_max              =   5.8539371599295E-09
(PID.TID 0000.0001) %MON advcfl_uvel_max              =   1.4221635926062E-02
(PID.TID 0000.0001) %MON advcfl_vvel_max              =   1.1503561635525E-02
(PID.TID 0000.0001) %MON advcfl_wvel_max              =   1.1117641175631E-08
(PID.TID 0000.0001) %MON advcfl_W_hf_max              =   0.0000000000000E+00
(PID.TID 0000.0001) %MON pe_b_mean                    =   2.5355870242285E-06
(PID.TID 0000.0001) %MON ke_max                       =   1.7558368412588E-03
(PID.TID 0000.0001) %MON ke_mean                      =   3.6586161241747E-04
(PID.TID 0000.0001) %MON ke_vol                       =   7.2529629296391E+15
(PID.TID 0000.0001) %MON vort_r_min                   =  -1.8975695095124E-06
(PID.TID 0000.0001) %MON vort_r_max                   =   2.4060600887214E-06
(PID.TID 0000.0001) %MON vort_a_mean                  =   1.0615000000000E-04
(PID.TID 0000.0001) %MON vort_a_sd                    =   3.5792100943849E-06
(PID.TID 0000.0001) %MON vort_p_mean                  =   1.1210870169429E-04
(PID.TID 0000.0001) %MON vort_p_sd                    =   2.1056284352762E-05
(PID.TID 0000.0001) %MON surfExpan_theta_mean         =  -1.2998672283451E-21
(PID.TID 0000.0001) %MON surfExpan_salt_mean          =  -1.8297379533843E-21
(PID.TID 0000.0001) // =======================================================
(PID.TID 0000.0001) // End MONITOR dynamic field statistics
(PID.TID 0000.0001) // =======================================================
 cg2d: Sum(rhs),rhsMax =   7.72110065637450E-05  6.83798240111388E-03
 cg2d: Sum(rhs),rhsMax =   7.72681499961229E-05  6.83737399865126E-03
 cg2d: Sum(rhs),rhsMax =   7.73252770301706E-05  6.83676072543621E-03
 cg2d: Sum(rhs),rhsMax =   7.73820758135776E-05  6.83617171782311E-03
 cg2d: Sum(rhs),rhsMax =   7.74384821895149E-05  6.83560996529181E-03
 cg2d: Sum(rhs),rhsMax =   7.74948943892228E-05  6.83504331087310E-03
 cg2d: Sum(rhs),rhsMax =   7.75513020899350E-05  6.83447176694158E-03
 cg2d: Sum(rhs),rhsMax =   7.76076962699505E-05  6.83389534560150E-03
 cg2d: Sum(rhs),rhsMax =   7.76640834208521E-05  6.83331405802982E-03
 cg2d: Sum(rhs),rhsMax =   7.77204570945860E-05  6.83272791596550E-03
 cg2d: Sum(rhs),rhsMax =   7.77768518609120E-05  6.83213693058669E-03
 cg2d: Sum(rhs),rhsMax =   7.78332155436162E-05  6.83154111392414E-03
 cg2d: Sum(rhs),rhsMax =   7.78895711034504E-05  6.83094047720797E-03
 cg2d: Sum(rhs),rhsMax =   7.79459301908790E-05  6.83033503237690E-03
 cg2d: Sum(rhs),rhsMax =   7.80022681031258E-05  6.82972479039422E-03
 cg2d: Sum(rhs),rhsMax =   7.80586189114991E-05  6.82910976383488E-03
 cg2d: Sum(rhs),rhsMax =   7.81149301133503E-05  6.82848996380231E-03
 cg2d: Sum(rhs),rhsMax =   7.81712419617043E-05  6.82786540230174E-03
 cg2d: Sum(rhs),rhsMax =   7.82275620166209E-05  6.82723609053210E-03
 cg2d: Sum(rhs),rhsMax =   7.82838724798091E-05  6.82660204093322E-03
 cg2d: Sum(rhs),rhsMax =   7.83401680061798E-05  6.82596326428581E-03
 cg2d: Sum(rhs),rhsMax =   7.83964602129668E-05  6.82531977375043E-03
 cg2d: Sum(rhs),rhsMax =   7.84527399486845E-05  6.82467157979492E-03
 cg2d: Sum(rhs),rhsMax =   7.85090096522890E-05  6.82401869494724E-03
 cg2d: Sum(rhs),rhsMax =   7.85652879703776E-05  6.82336113045370E-03
 cg2d: Sum(rhs),rhsMax =   7.86215544770837E-05  6.82269889850058E-03
 cg2d: Sum(rhs),rhsMax =   7.86777887107604E-05  6.82203201034262E-03
 cg2d: Sum(rhs),rhsMax =   7.87340369595253E-05  6.82136047827641E-03
 cg2d: Sum(rhs),rhsMax =   7.87902672247250E-05  6.82068431356415E-03
 cg2d: Sum(rhs),rhsMax =   7.88465157548005E-05  6.82000352930130E-03
 cg2d: Sum(rhs),rhsMax =   7.89027332709865E-05  6.81931813579714E-03
 cg2d: Sum(rhs),rhsMax =   7.89589524745589E-05  6.81862814656763E-03
 cg2d: Sum(rhs),rhsMax =   7.90151626837809E-05  6.81793357197808E-03
 cg2d: Sum(rhs),rhsMax =   7.90713660390372E-05  6.81723442538114E-03
 cg2d: Sum(rhs),rhsMax =   7.91275596758656E-05  6.81653071747599E-03
 cg2d: Sum(rhs),rhsMax =   7.91837673553733E-05  6.81582246127045E-03
 cg2d: Sum(rhs),rhsMax =   7.92399585990717E-05  6.81510966745257E-03
 cg2d: Sum(rhs),rhsMax =   7.92961528089959E-05  6.81439234841616E-03
 cg2d: Sum(rhs),rhsMax =   7.93523483206830E-05  6.81367051645854E-03
 cg2d: Sum(rhs),rhsMax =   7.94085087315365E-05  6.81294418280786E-03
 cg2d: Sum(rhs),rhsMax =   7.94646821098270E-05  6.81221335881875E-03
 cg2d: Sum(rhs),rhsMax =   7.95208517297605E-05  6.81147805981224E-03
 cg2d: Sum(rhs),rhsMax =   7.95770117836807E-05  6.81073829484475E-03
 cg2d: Sum(rhs),rhsMax =   7.96331559331570E-05  6.80999407757197E-03
 cg2d: Sum(rhs),rhsMax =   7.96893142194599E-05  6.80924541846238E-03
 cg2d: Sum(rhs),rhsMax =   7.97454467618233E-05  6.80849233072062E-03
 cg2d: Sum(rhs),rhsMax =   7.98015786656965E-05  6.80773482542322E-03
 cg2d: Sum(rhs),rhsMax =   7.98577090761767E-05  6.80697291571129E-03
 cg2d: Sum(rhs),rhsMax =   7.99138396737477E-05  6.80620661224015E-03
 cg2d: Sum(rhs),rhsMax =   7.99699709288734E-05  6.80543592894627E-03
 cg2d: Sum(rhs),rhsMax =   8.00260830481230E-05  6.80466087622454E-03
 cg2d: Sum(rhs),rhsMax =   8.00821797704251E-05  6.80388146789675E-03
 cg2d: Sum(rhs),rhsMax =   8.01382838856303E-05  6.80309771532655E-03
 cg2d: Sum(rhs),rhsMax =   8.01943710458134E-05  6.80230962944314E-03
 cg2d: Sum(rhs),rhsMax =   8.02504756279277E-05  6.80151722240888E-03
 cg2d: Sum(rhs),rhsMax =   8.03065789492840E-05  6.80072050891722E-03
 cg2d: Sum(rhs),rhsMax =   8.03626825240612E-05  6.79991949813336E-03
 cg2d: Sum(rhs),rhsMax =   8.04187539606748E-05  6.79911420571319E-03
 cg2d: Sum(rhs),rhsMax =   8.04748312136084E-05  6.79830464115688E-03
 cg2d: Sum(rhs),rhsMax =   8.05307360231561E-05  6.79750506041565E-03
 cg2d: Sum(rhs),rhsMax =   8.05861151527052E-05  6.79674576174556E-03
 cg2d: Sum(rhs),rhsMax =   8.06414811465269E-05  6.79598215208834E-03
 cg2d: Sum(rhs),rhsMax =   8.06968580876013E-05  6.79521424297419E-03
 cg2d: Sum(rhs),rhsMax =   8.07522148958679E-05  6.79444204693527E-03
 cg2d: Sum(rhs),rhsMax =   8.08075697924506E-05  6.79366557555321E-03
 cg2d: Sum(rhs),rhsMax =   8.08629167354680E-05  6.79288484158868E-03
 cg2d: Sum(rhs),rhsMax =   8.09182681190219E-05  6.79209985559874E-03
 cg2d: Sum(rhs),rhsMax =   8.09735954294885E-05  6.79131063091358E-03
 cg2d: Sum(rhs),rhsMax =   8.10289311560645E-05  6.79051718077793E-03
 cg2d: Sum(rhs),rhsMax =   8.10842753812590E-05  6.78971951409018E-03
 cg2d: Sum(rhs),rhsMax =   8.11396399987988E-05  6.78891764435137E-03
 cg2d: Sum(rhs),rhsMax =   8.11949677858802E-05  6.78811158502823E-03
(PID.TID 0000.0001)      cg2d_init_res =   1.20620519353551E-02
(PID.TID 0000.0001)      cg2d_iters(min,last) =      -1     392
(PID.TID 0000.0001)      cg2d_last_res =   9.40367042095352E-08
(PID.TID 0000.0001) // =======================================================
(PID.TID 0000.0001) // Begin MONITOR dynamic field statistics
(PID.TID 0000.0001) // =======================================================
(PID.TID 0000.0001) %MON time_tsnumber                =                  3816
(PID.TID 0000.0001) %MON time_secondsf                =   4.5792000000000E+06
(PID.TID 0000.0001) %MON dynstat_eta_max              =   7.2226388363485E-02
(PID.TID 0000.0001) %MON dynstat_eta_min              =  -1.2323577199422E-01
(PID.TID 0000.0001) %MON dynstat_eta_mean             =  -2.6243288499545E-09
(PID.TID 0000.0001) %MON dynstat_eta_sd               =   5.0457442078793E-02
(PID.TID 0000.0001) %MON dynstat_eta_del2             =   3.0490962390108E-07
(PID.TID 0000.0001) %MON dynstat_uvel_max             =   4.3103963338442E-02
(PID.TID 0000.0001) %MON dynstat_uvel_min             =  -6.0278638290816E-02
(PID.TID 0000.0001) %MON dynstat_uvel_mean            =   9.7101067000613E-08
(PID.TID 0000.0001) %MON dynstat_uvel_sd              =   2.0277367189048E-02
(PID.TID 0000.0001) %MON dynstat_uvel_del2            =   5.8838267188483E-07
(PID.TID 0000.0001) %MON dynstat_vvel_max             =   4.8075704069301E-02
(PID.TID 0000.0001) %MON dynstat_vvel_min             =  -4.0132869168705E-02
(PID.TID 0000.0001) %MON dynstat_vvel_mean            =  -2.1329515853705E-07
(PID.TID 0000.0001) %MON dynstat_vvel_sd              =   1.8597722108475E-02
(PID.TID 0000.0001) %MON dynstat_vvel_del2            =   8.1705550504863E-07
(PID.TID 0000.0001) %MON dynstat_wvel_max             =   2.4849222119665E-08
(PID.TID 0000.0001) %MON dynstat_wvel_min             =  -2.3133099316619E-08
(PID.TID 0000.0001) %MON dynstat_wvel_mean            =   7.3008422344546E-21
(PID.TID 0000.0001) %MON dynstat_wvel_sd              =   1.0665383848862E-08
(PID.TID 0000.0001) %MON dynstat_wvel_del2            =   8.9896246435592E-14
(PID.TID 0000.0001) %MON dynstat_theta_max            =   2.0000000000000E+01
(PID.TID 0000.0001) %MON dynstat_theta_min            =   2.0000000000000E+01
(PID.TID 0000.0001) %MON dynstat_theta_mean           =   1.9999999999999E+01
(PID.TID 0000.0001) %MON dynstat_theta_sd             =   1.1972645097557E-12
(PID.TID 0000.0001) %MON dynstat_theta_del2           =   0.0000000000000E+00
(PID.TID 0000.0001) %MON dynstat_salt_max             =   3.0000000000000E+01
(PID.TID 0000.0001) %MON dynstat_salt_min             =   3.0000000000000E+01
(PID.TID 0000.0001) %MON dynstat_salt_mean            =   2.9999999999998E+01
(PID.TID 0000.0001) %MON dynstat_salt_sd              =   2.1529444893531E-12
(PID.TID 0000.0001) %MON dynstat_salt_del2            =   0.0000000000000E+00
(PID.TID 0000.0001) %MON trAdv_CFL_u_max              =   1.4463499391234E-02
(PID.TID 0000.0001) %MON trAdv_CFL_v_max              =   1.1537271663411E-02
(PID.TID 0000.0001) %MON trAdv_CFL_w_max              =   6.2862950339420E-09
(PID.TID 0000.0001) %MON advcfl_uvel_max              =   1.4466873189796E-02
(PID.TID 0000.0001) %MON advcfl_vvel_max              =   1.1538168976632E-02
(PID.TID 0000.0001) %MON advcfl_wvel_max              =   1.1927626617439E-08
(PID.TID 0000.0001) %MON advcfl_W_hf_max              =   0.0000000000000E+00
(PID.TID 0000.0001) %MON pe_b_mean                    =   2.6048591045971E-06
(PID.TID 0000.0001) %MON ke_max                       =   1.8168949916625E-03
(PID.TID 0000.0001) %MON ke_mean                      =   3.7681956582332E-04
(PID.TID 0000.0001) %MON ke_vol                       =   7.2529629296391E+15
(PID.TID 0000.0001) %MON vort_r_min                   =  -1.9186528911838E-06
(PID.TID 0000.0001) %MON vort_r_max                   =   2.3938931492246E-06
(PID.TID 0000.0001) %MON vort_a_mean                  =   1.0615000000000E-04
(PID.TID 0000.0001) %MON vort_a_sd                    =   3.5795980955851E-06
(PID.TID 0000.0001) %MON vort_p_mean                  =   1.1210870169429E-04
(PID.TID 0000.0001) %MON vort_p_sd                    =   2.1056342682742E-05
(PID.TID 0000.0001) %MON surfExpan_theta_mean         =   1.4580932461751E-19
(PID.TID 0000.0001) %MON surfExpan_salt_mean          =   2.1868152429562E-19
(PID.TID 0000.0001) // =======================================================
(PID.TID 0000.0001) // End MONITOR dynamic field statistics
(PID.TID 0000.0001) // =======================================================
 cg2d: Sum(rhs),rhsMax =   8.12503026068850E-05  6.78730134712556E-03
 cg2d: Sum(rhs),rhsMax =   8.13056242900340E-05  6.78648694208782E-03
 cg2d: Sum(rhs),rhsMax =   8.13609444633911E-05  6.78566838352555E-03
 cg2d: Sum(rhs),rhsMax =   8.14162692852069E-05  6.78484568275446E-03
 cg2d: Sum(rhs),rhsMax =   8.14715800200767E-05  6.78401885221120E-03
 cg2d: Sum(rhs),rhsMax =   8.15268927765980E-05  6.78318790381265E-03
 cg2d: Sum(rhs),rhsMax =   8.15822103358197E-05  6.78235284917420E-03
 cg2d: Sum(rhs),rhsMax =   8.16374992616076E-05  6.78151370231137E-03
 cg2d: Sum(rhs),rhsMax =   8.16927945761418E-05  6.78067047234978E-03
 cg2d: Sum(rhs),rhsMax =   8.17480897295003E-05  6.77982317334577E-03
 cg2d: Sum(rhs),rhsMax =   8.18033713559326E-05  6.77897181861991E-03
 cg2d: Sum(rhs),rhsMax =   8.18586717031590E-05  6.77811641883590E-03
 cg2d: Sum(rhs),rhsMax =   8.19139729195165E-05  6.77725698544071E-03
 cg2d: Sum(rhs),rhsMax =   8.19692466045023E-05  6.77639353312099E-03
 cg2d: Sum(rhs),rhsMax =   8.20245324115931E-05  6.77552607266980E-03
 cg2d: Sum(rhs),rhsMax =   8.20798239810593E-05  6.77465461506817E-03
 cg2d: Sum(rhs),rhsMax =   8.21351065870895E-05  6.77377917498688E-03
 cg2d: Sum(rhs),rhsMax =   8.21903723408610E-05  6.77289976564862E-03
 cg2d: Sum(rhs),rhsMax =   8.22456379815980E-05  6.77201639435501E-03
 cg2d: Sum(rhs),rhsMax =   8.23009108898124E-05  6.77112907549214E-03
 cg2d: Sum(rhs),rhsMax =   8.23561785754097E-05  6.77023782298483E-03
 cg2d: Sum(rhs),rhsMax =   8.24114718457887E-05  6.76934264875124E-03
 cg2d: Sum(rhs),rhsMax =   8.24667351269513E-05  6.76844356495665E-03
 cg2d: Sum(rhs),rhsMax =   8.25219951981013E-05  6.76754058360421E-03
 cg2d: Sum(rhs),rhsMax =   8.25772684270661E-05  6.76663371747354E-03
 cg2d: Sum(rhs),rhsMax =   8.26325201672040E-05  6.76572298019327E-03
 cg2d: Sum(rhs),rhsMax =   8.26877844742856E-05  6.76480837866283E-03
 cg2d: Sum(rhs),rhsMax =   8.27430352558192E-05  6.76388992859905E-03
 cg2d: Sum(rhs),rhsMax =   8.27983003215296E-05  6.76296764331282E-03
 cg2d: Sum(rhs),rhsMax =   8.28535437601688E-05  6.76204153463657E-03
 cg2d: Sum(rhs),rhsMax =   8.29088166046884E-05  6.76111161597149E-03
 cg2d: Sum(rhs),rhsMax =   8.29640586363866E-05  6.76017789827540E-03
 cg2d: Sum(rhs),rhsMax =   8.30193164202088E-05  6.75924039268409E-03
 cg2d: Sum(rhs),rhsMax =   8.30745668758607E-05  6.75829911389023E-03
 cg2d: Sum(rhs),rhsMax =   8.31298181631925E-05  6.75735407265436E-03
 cg2d: Sum(rhs),rhsMax =   8.31850799845025E-05  6.75640528201990E-03
 cg2d: Sum(rhs),rhsMax =   8.32403171373347E-05  6.75545275382200E-03
 cg2d: Sum(rhs),rhsMax =   8.32955707668792E-05  6.75449650223030E-03
 cg2d: Sum(rhs),rhsMax =   8.33508255232746E-05  6.75353653699453E-03
 cg2d: Sum(rhs),rhsMax =   8.34060696016017E-05  6.75257287171019E-03
 cg2d: Sum(rhs),rhsMax =   8.34613118670768E-05  6.75160552055914E-03
 cg2d: Sum(rhs),rhsMax =   8.35165659894962E-05  6.75063449453870E-03
 cg2d: Sum(rhs),rhsMax =   8.35718104252544E-05  6.74965980459671E-03
 cg2d: Sum(rhs),rhsMax =   8.36270526597227E-05  6.74868146552107E-03
 cg2d: Sum(rhs),rhsMax =   8.36822815678470E-05  6.74769948799714E-03
 cg2d: Sum(rhs),rhsMax =   8.37374529232223E-05  6.74671961009362E-03
 cg2d: Sum(rhs),rhsMax =   8.37920042564585E-05  6.74578619213489E-03
 cg2d: Sum(rhs),rhsMax =   8.38465447301658E-05  6.74484908801347E-03
 cg2d: Sum(rhs),rhsMax =   8.39010909526208E-05  6.74390831239163E-03
 cg2d: Sum(rhs),rhsMax =   8.39556474064723E-05  6.74296387540763E-03
 cg2d: Sum(rhs),rhsMax =   8.40102111824147E-05  6.74201579040048E-03
 cg2d: Sum(rhs),rhsMax =   8.40647531647051E-05  6.74106407011573E-03
 cg2d: Sum(rhs),rhsMax =   8.41192811189555E-05  6.74010872492692E-03
 cg2d: Sum(rhs),rhsMax =   8.41738342931184E-05  6.73914976612966E-03
 cg2d: Sum(rhs),rhsMax =   8.42283741860736E-05  6.73818720971095E-03
 cg2d: Sum(rhs),rhsMax =   8.42829212647769E-05  6.73722106569615E-03
 cg2d: Sum(rhs),rhsMax =   8.43374673247547E-05  6.73625134849076E-03
 cg2d: Sum(rhs),rhsMax =   8.43920164836937E-05  6.73527806790314E-03
 cg2d: Sum(rhs),rhsMax =   8.44465594397182E-05  6.73430123870080E-03
 cg2d: Sum(rhs),rhsMax =   8.45010946568503E-05  6.73332087118207E-03
 cg2d: Sum(rhs),rhsMax =   8.45556365142480E-05  6.73233697918291E-03
 cg2d: Sum(rhs),rhsMax =   8.46101770078105E-05  6.73134957143548E-03
 cg2d: Sum(rhs),rhsMax =   8.46647272691927E-05  6.73035866425483E-03
 cg2d: Sum(rhs),rhsMax =   8.47192658830435E-05  6.72936426972885E-03
 cg2d: Sum(rhs),rhsMax =   8.47738232608252E-05  6.72836639726626E-03
 cg2d: Sum(rhs),rhsMax =   8.48283518251700E-05  6.72736505925433E-03
 cg2d: Sum(rhs),rhsMax =   8.48829003689631E-05  6.72636027311590E-03
 cg2d: Sum(rhs),rhsMax =   8.49374377080185E-05  6.72535204877486E-03
 cg2d: Sum(rhs),rhsMax =   8.49919895389638E-05  6.72434039634627E-03
 cg2d: Sum(rhs),rhsMax =   8.50465344650092E-05  6.72332532692400E-03
 cg2d: Sum(rhs),rhsMax =   8.51010913143890E-05  6.72230685690758E-03
 cg2d: Sum(rhs),rhsMax =   8.51556347253044E-05  6.72128499717337E-03
(PID.TID 0000.0001)      cg2d_init_res =   1.20754584863894E-02
(PID.TID 0000.0001)      cg2d_iters(min,last) =      -1     392
(PID.TID 0000.0001)      cg2d_last_res =   9.36865016032380E-08
(PID.TID 0000.0001) // =======================================================
(PID.TID 0000.0001) // Begin MONITOR dynamic field statistics
(PID.TID 0000.0001) // =======================================================
(PID.TID 0000.0001) %MON time_tsnumber                =                  3888
(PID.TID 0000.0001) %MON time_secondsf                =   4.6656000000000E+06
(PID.TID 0000.0001) %MON dynstat_eta_max              =   7.2428577114298E-02
(PID.TID 0000.0001) %MON dynstat_eta_min              =  -1.2520956977648E-01
(PID.TID 0000.0001) %MON dynstat_eta_mean             =  -2.7250453451484E-09
(PID.TID 0000.0001) %MON dynstat_eta_sd               =   5.1131414173403E-02
(PID.TID 0000.0001) %MON dynstat_eta_del2             =   3.0929085287340E-07
(PID.TID 0000.0001) %MON dynstat_uvel_max             =   4.4167539258395E-02
(PID.TID 0000.0001) %MON dynstat_uvel_min             =  -6.1280709430743E-02
(PID.TID 0000.0001) %MON dynstat_uvel_mean            =   8.7690789129072E-08
(PID.TID 0000.0001) %MON dynstat_uvel_sd              =   2.0594317138652E-02
(PID.TID 0000.0001) %MON dynstat_uvel_del2            =   5.9578225863739E-07
(PID.TID 0000.0001) %MON dynstat_vvel_max             =   4.8062713546032E-02
(PID.TID 0000.0001) %MON dynstat_vvel_min             =  -4.0830332873302E-02
(PID.TID 0000.0001) %MON dynstat_vvel_mean            =  -2.2394700816820E-07
(PID.TID 0000.0001) %MON dynstat_vvel_sd              =   1.8840253428071E-02
(PID.TID 0000.0001) %MON dynstat_vvel_del2            =   8.1508162187916E-07
(PID.TID 0000.0001) %MON dynstat_wvel_max             =   2.6415662080399E-08
(PID.TID 0000.0001) %MON dynstat_wvel_min             =  -2.3129441839410E-08
(PID.TID 0000.0001) %MON dynstat_wvel_mean            =   2.1649777139839E-21
(PID.TID 0000.0001) %MON dynstat_wvel_sd              =   1.0554581589580E-08
(PID.TID 0000.0001) %MON dynstat_wvel_del2            =   8.8837442795528E-14
(PID.TID 0000.0001) %MON dynstat_theta_max            =   2.0000000000000E+01
(PID.TID 0000.0001) %MON dynstat_theta_min            =   2.0000000000000E+01
(PID.TID 0000.0001) %MON dynstat_theta_mean           =   1.9999999999999E+01
(PID.TID 0000.0001) %MON dynstat_theta_sd             =   1.1972645097557E-12
(PID.TID 0000.0001) %MON dynstat_theta_del2           =   0.0000000000000E+00
(PID.TID 0000.0001) %MON dynstat_salt_max             =   3.0000000000000E+01
(PID.TID 0000.0001) %MON dynstat_salt_min             =   3.0000000000000E+01
(PID.TID 0000.0001) %MON dynstat_salt_mean            =   2.9999999999998E+01
(PID.TID 0000.0001) %MON dynstat_salt_sd              =   2.1529444893531E-12
(PID.TID 0000.0001) %MON dynstat_salt_del2            =   0.0000000000000E+00
(PID.TID 0000.0001) %MON trAdv_CFL_u_max              =   1.4704062741961E-02
(PID.TID 0000.0001) %MON trAdv_CFL_v_max              =   1.1534700340985E-02
(PID.TID 0000.0001) %MON trAdv_CFL_w_max              =   6.6863048632701E-09
(PID.TID 0000.0001) %MON advcfl_uvel_max              =   1.4707370263378E-02
(PID.TID 0000.0001) %MON advcfl_vvel_max              =   1.1535051251048E-02
(PID.TID 0000.0001) %MON advcfl_wvel_max              =   1.2679517798591E-08
(PID.TID 0000.0001) %MON advcfl_W_hf_max              =   0.0000000000000E+00
(PID.TID 0000.0001) %MON pe_b_mean                    =   2.6749113020063E-06
(PID.TID 0000.0001) %MON ke_max                       =   1.8777776239593E-03
(PID.TID 0000.0001) %MON ke_mean                      =   3.8778705370403E-04
(PID.TID 0000.0001) %MON ke_vol                       =   7.2529629296391E+15
(PID.TID 0000.0001) %MON vort_r_min                   =  -1.9388870947351E-06
(PID.TID 0000.0001) %MON vort_r_max                   =   2.3752934572656E-06
(PID.TID 0000.0001) %MON vort_a_mean                  =   1.0615000000000E-04
(PID.TID 0000.0001) %MON vort_a_sd                    =   3.5799726159400E-06
(PID.TID 0000.0001) %MON vort_p_mean                  =   1.1210870169429E-04
(PID.TID 0000.0001) %MON vort_p_sd                    =   2.1056386898382E-05
(PID.TID 0000.0001) %MON surfExpan_theta_mean         =   4.3669076404257E-20
(PID.TID 0000.0001) %MON surfExpan_salt_mean          =   6.5480413594325E-20
(PID.TID 0000.0001) // =======================================================
(PID.TID 0000.0001) // End MONITOR dynamic field statistics
(PID.TID 0000.0001) // =======================================================
 cg2d: Sum(rhs),rhsMax =   8.52101883537667E-05  6.72025976144323E-03
 cg2d: Sum(rhs),rhsMax =   8.52647336828244E-05  6.71923116012654E-03
 cg2d: Sum(rhs),rhsMax =   8.53192791244049E-05  6.71819920715292E-03
 cg2d: Sum(rhs),rhsMax =   8.53738642929147E-05  6.71716391313666E-03
 cg2d: Sum(rhs),rhsMax =   8.54283991883384E-05  6.71612529231679E-03
 cg2d: Sum(rhs),rhsMax =   8.54829142731793E-05  6.71508335767638E-03
 cg2d: Sum(rhs),rhsMax =   8.55374756394758E-05  6.71403811749383E-03
 cg2d: Sum(rhs),rhsMax =   8.55920357449658E-05  6.71298958378497E-03
 cg2d: Sum(rhs),rhsMax =   8.56466044255179E-05  6.71193777504281E-03
 cg2d: Sum(rhs),rhsMax =   8.57011613166515E-05  6.71088269972119E-03
 cg2d: Sum(rhs),rhsMax =   8.57557318624056E-05  6.70982437350319E-03
 cg2d: Sum(rhs),rhsMax =   8.58102931882983E-05  6.70876280435128E-03
 cg2d: Sum(rhs),rhsMax =   8.58648633599783E-05  6.70769800635824E-03
 cg2d: Sum(rhs),rhsMax =   8.59194275828140E-05  6.70662999259040E-03
 cg2d: Sum(rhs),rhsMax =   8.59740217385523E-05  6.70555877481493E-03
 cg2d: Sum(rhs),rhsMax =   8.60285867564643E-05  6.70448436635844E-03
 cg2d: Sum(rhs),rhsMax =   8.60831676349778E-05  6.70340677785698E-03
 cg2d: Sum(rhs),rhsMax =   8.61377386520618E-05  6.70232602223884E-03
 cg2d: Sum(rhs),rhsMax =   8.61923024675403E-05  6.70124211348566E-03
 cg2d: Sum(rhs),rhsMax =   8.62468949567601E-05  6.70015506190345E-03
 cg2d: Sum(rhs),rhsMax =   8.63014820997559E-05  6.69906488283911E-03
 cg2d: Sum(rhs),rhsMax =   8.63560680363982E-05  6.69797158607251E-03
 cg2d: Sum(rhs),rhsMax =   8.64106545232059E-05  6.69687518464122E-03
 cg2d: Sum(rhs),rhsMax =   8.64652624004668E-05  6.69577569095637E-03
 cg2d: Sum(rhs),rhsMax =   8.65198659379418E-05  6.69467311870356E-03
 cg2d: Sum(rhs),rhsMax =   8.65744740610555E-05  6.69356747876135E-03
 cg2d: Sum(rhs),rhsMax =   8.66290711941911E-05  6.69245878346094E-03
 cg2d: Sum(rhs),rhsMax =   8.66836688289884E-05  6.69134704589350E-03
 cg2d: Sum(rhs),rhsMax =   8.67382954991953E-05  6.69023227980968E-03
 cg2d: Sum(rhs),rhsMax =   8.67929016019520E-05  6.68911449439473E-03
 cg2d: Sum(rhs),rhsMax =   8.68475227301323E-05  6.68799370522874E-03
 cg2d: Sum(rhs),rhsMax =   8.69021639718537E-05  6.68686992248617E-03
 cg2d: Sum(rhs),rhsMax =   8.69568001653012E-05  6.68574316050502E-03
 cg2d: Sum(rhs),rhsMax =   8.70114434905075E-05  6.68461343034029E-03
 cg2d: Sum(rhs),rhsMax =   8.70658559910115E-05  6.68349973920557E-03
 cg2d: Sum(rhs),rhsMax =   8.71198312851675E-05  6.68241628847964E-03
 cg2d: Sum(rhs),rhsMax =   8.71737758332426E-05  6.68132981560185E-03
 cg2d: Sum(rhs),rhsMax =   8.72277462271045E-05  6.68024033032663E-03
 cg2d: Sum(rhs),rhsMax =   8.72817107142698E-05  6.67914784638324E-03
 cg2d: Sum(rhs),rhsMax =   8.73357120710016E-05  6.67805237430679E-03
 cg2d: Sum(rhs),rhsMax =   8.73896997375884E-05  6.67695392889375E-03
 cg2d: Sum(rhs),rhsMax =   8.74437070830150E-05  6.67585252025673E-03
 cg2d: Sum(rhs),rhsMax =   8.74977014942613E-05  6.67474816281159E-03
 cg2d: Sum(rhs),rhsMax =   8.75517048813516E-05  6.67364086722556E-03
 cg2d: Sum(rhs),rhsMax =   8.76057275314727E-05  6.67253064609699E-03
 cg2d: Sum(rhs),rhsMax =   8.76597339560920E-05  6.67141751002136E-03
 cg2d: Sum(rhs),rhsMax =   8.77137426394730E-05  6.67030147482657E-03
 cg2d: Sum(rhs),rhsMax =   8.77677727479185E-05  6.66918254934838E-03
 cg2d: Sum(rhs),rhsMax =   8.78218219851640E-05  6.66806074918722E-03
 cg2d: Sum(rhs),rhsMax =   8.78758784358864E-05  6.66693608281607E-03
 cg2d: Sum(rhs),rhsMax =   8.79299053265382E-05  6.66580856648366E-03
 cg2d: Sum(rhs),rhsMax =   8.79839687509365E-05  6.66467820924088E-03
 cg2d: Sum(rhs),rhsMax =   8.80380443641841E-05  6.66354502459837E-03
 cg2d: Sum(rhs),rhsMax =   8.80921118897112E-05  6.66240902377828E-03
 cg2d: Sum(rhs),rhsMax =   8.81461840899541E-05  6.66127022157794E-03
 cg2d: Sum(rhs),rhsMax =   8.82002822483051E-05  6.66012862799236E-03
 cg2d: Sum(rhs),rhsMax =   8.82543854743337E-05  6.65898425699563E-03
 cg2d: Sum(rhs),rhsMax =   8.83084990952378E-05  6.65783711899128E-03
 cg2d: Sum(rhs),rhsMax =   8.83626013342643E-05  6.65668722849268E-03
 cg2d: Sum(rhs),rhsMax =   8.84167308175545E-05  6.65553459455386E-03
 cg2d: Sum(rhs),rhsMax =   8.84708609300354E-05  6.65437923239462E-03
 cg2d: Sum(rhs),rhsMax =   8.85250104766867E-05  6.65322115161454E-03
 cg2d: Sum(rhs),rhsMax =   8.85791484551484E-05  6.65206036780768E-03
 cg2d: Sum(rhs),rhsMax =   8.86333007430397E-05  6.65089689014479E-03
 cg2d: Sum(rhs),rhsMax =   8.86874808435473E-05  6.64973073334650E-03
 cg2d: Sum(rhs),rhsMax =   8.87416779154827E-05  6.64856190664125E-03
 cg2d: Sum(rhs),rhsMax =   8.87958469702327E-05  6.64739042586628E-03
 cg2d: Sum(rhs),rhsMax =   8.88500681655120E-05  6.64621630058937E-03
 cg2d: Sum(rhs),rhsMax =   8.89042905264808E-05  6.64503954497567E-03
 cg2d: Sum(rhs),rhsMax =   8.89585090620699E-05  6.64386016840241E-03
 cg2d: Sum(rhs),rhsMax =   8.90127384297404E-05  6.64267818687201E-03
 cg2d: Sum(rhs),rhsMax =   8.90669917330785E-05  6.64149360883221E-03
(PID.TID 0000.0001)      cg2d_init_res =   1.21240492090362E-02
(PID.TID 0000.0001)      cg2d_iters(min,last) =      -1     392
(PID.TID 0000.0001)      cg2d_last_res =   9.33822269797545E-08
(PID.TID 0000.0001) // =======================================================
(PID.TID 0000.0001) // Begin MONITOR dynamic field statistics
(PID.TID 0000.0001) // =======================================================
(PID.TID 0000.0001) %MON time_tsnumber                =                  3960
(PID.TID 0000.0001) %MON time_secondsf                =   4.7520000000000E+06
(PID.TID 0000.0001) %MON dynstat_eta_max              =   7.2504233780121E-02
(PID.TID 0000.0001) %MON dynstat_eta_min              =  -1.2718234847510E-01
(PID.TID 0000.0001) %MON dynstat_eta_mean             =  -2.8162126308750E-09
(PID.TID 0000.0001) %MON dynstat_eta_sd               =   5.1805893799783E-02
(PID.TID 0000.0001) %MON dynstat_eta_del2             =   3.1347164533990E-07
(PID.TID 0000.0001) %MON dynstat_uvel_max             =   4.5247105132387E-02
(PID.TID 0000.0001) %MON dynstat_uvel_min             =  -6.2262839415458E-02
(PID.TID 0000.0001) %MON dynstat_uvel_mean            =   7.3158586012513E-08
(PID.TID 0000.0001) %MON dynstat_uvel_sd              =   2.0918535485530E-02
(PID.TID 0000.0001) %MON dynstat_uvel_del2            =   6.0304258030985E-07
(PID.TID 0000.0001) %MON dynstat_vvel_max             =   4.7916786216828E-02
(PID.TID 0000.0001) %MON dynstat_vvel_min             =  -4.1510742501643E-02
(PID.TID 0000.0001) %MON dynstat_vvel_mean            =  -2.3369639953517E-07
(PID.TID 0000.0001) %MON dynstat_vvel_sd              =   1.9067494622948E-02
(PID.TID 0000.0001) %MON dynstat_vvel_del2            =   8.1217168399321E-07
(PID.TID 0000.0001) %MON dynstat_wvel_max             =   2.7827432808699E-08
(PID.TID 0000.0001) %MON dynstat_wvel_min             =  -2.3144855568535E-08
(PID.TID 0000.0001) %MON dynstat_wvel_mean            =   4.7844152891962E-21
(PID.TID 0000.0001) %MON dynstat_wvel_sd              =   1.0446721368105E-08
(PID.TID 0000.0001) %MON dynstat_wvel_del2            =   8.8014090461152E-14
(PID.TID 0000.0001) %MON dynstat_theta_max            =   2.0000000000000E+01
(PID.TID 0000.0001) %MON dynstat_theta_min            =   2.0000000000000E+01
(PID.TID 0000.0001) %MON dynstat_theta_mean           =   1.9999999999999E+01
(PID.TID 0000.0001) %MON dynstat_theta_sd             =   1.1972645097557E-12
(PID.TID 0000.0001) %MON dynstat_theta_del2           =   0.0000000000000E+00
(PID.TID 0000.0001) %MON dynstat_salt_max             =   3.0000000000000E+01
(PID.TID 0000.0001) %MON dynstat_salt_min             =   3.0000000000000E+01
(PID.TID 0000.0001) %MON dynstat_salt_mean            =   2.9999999999998E+01
(PID.TID 0000.0001) %MON dynstat_salt_sd              =   2.1529444893531E-12
(PID.TID 0000.0001) %MON dynstat_salt_del2            =   0.0000000000000E+00
(PID.TID 0000.0001) %MON trAdv_CFL_u_max              =   1.4939840563177E-02
(PID.TID 0000.0001) %MON trAdv_CFL_v_max              =   1.1500067492329E-02
(PID.TID 0000.0001) %MON trAdv_CFL_w_max              =   7.0434334999596E-09
(PID.TID 0000.0001) %MON advcfl_uvel_max              =   1.4943081459710E-02
(PID.TID 0000.0001) %MON advcfl_vvel_max              =   1.1500028692039E-02
(PID.TID 0000.0001) %MON advcfl_wvel_max              =   1.3357167748176E-08
(PID.TID 0000.0001) %MON advcfl_W_hf_max              =   0.0000000000000E+00
(PID.TID 0000.0001) %MON pe_b_mean                    =   2.7459467982793E-06
(PID.TID 0000.0001) %MON ke_max                       =   1.9384173870222E-03
(PID.TID 0000.0001) %MON ke_mean                      =   3.9877408845680E-04
(PID.TID 0000.0001) %MON ke_vol                       =   7.2529629296391E+15
(PID.TID 0000.0001) %MON vort_r_min                   =  -1.9583085611080E-06
(PID.TID 0000.0001) %MON vort_r_max                   =   2.3514851279581E-06
(PID.TID 0000.0001) %MON vort_a_mean                  =   1.0615000000000E-04
(PID.TID 0000.0001) %MON vort_a_sd                    =   3.5803343333458E-06
(PID.TID 0000.0001) %MON vort_p_mean                  =   1.1210870169429E-04
(PID.TID 0000.0001) %MON vort_p_sd                    =   2.1056419398370E-05
(PID.TID 0000.0001) %MON surfExpan_theta_mean         =   9.6104904133369E-20
(PID.TID 0000.0001) %MON surfExpan_salt_mean          =   1.4411245707550E-19
(PID.TID 0000.0001) // =======================================================
(PID.TID 0000.0001) // End MONITOR dynamic field statistics
(PID.TID 0000.0001) // =======================================================
 cg2d: Sum(rhs),rhsMax =   8.91212425327991E-05  6.64030645083706E-03
 cg2d: Sum(rhs),rhsMax =   8.91754831210622E-05  6.63911671973016E-03
 cg2d: Sum(rhs),rhsMax =   8.92297730084196E-05  6.63792443127519E-03
 cg2d: Sum(rhs),rhsMax =   8.92840727683480E-05  6.63672959828638E-03
 cg2d: Sum(rhs),rhsMax =   8.93383630976531E-05  6.63553223334627E-03
 cg2d: Sum(rhs),rhsMax =   8.93926949783125E-05  6.63433234412303E-03
 cg2d: Sum(rhs),rhsMax =   8.94470048243379E-05  6.63312994845440E-03
 cg2d: Sum(rhs),rhsMax =   8.95013451210598E-05  6.63192505349357E-03
 cg2d: Sum(rhs),rhsMax =   8.95557093338610E-05  6.63071767604378E-03
 cg2d: Sum(rhs),rhsMax =   8.96100809746822E-05  6.62950782391019E-03
 cg2d: Sum(rhs),rhsMax =   8.96644740052406E-05  6.62829551459994E-03
 cg2d: Sum(rhs),rhsMax =   8.97188632512898E-05  6.62708075572192E-03
 cg2d: Sum(rhs),rhsMax =   8.97732727920641E-05  6.62586356223073E-03
 cg2d: Sum(rhs),rhsMax =   8.98277192281078E-05  6.62464394304874E-03
 cg2d: Sum(rhs),rhsMax =   8.98821589695713E-05  6.62342191513269E-03
 cg2d: Sum(rhs),rhsMax =   8.99366208539738E-05  6.62219748641744E-03
 cg2d: Sum(rhs),rhsMax =   8.99911033736939E-05  6.62097067228919E-03
 cg2d: Sum(rhs),rhsMax =   9.00455938458943E-05  6.61974148261417E-03
 cg2d: Sum(rhs),rhsMax =   9.01000931163363E-05  6.61850993104057E-03
 cg2d: Sum(rhs),rhsMax =   9.01546141094372E-05  6.61727602661574E-03
 cg2d: Sum(rhs),rhsMax =   9.02091742085945E-05  6.61603978658741E-03
 cg2d: Sum(rhs),rhsMax =   9.02637458904498E-05  6.61480121872032E-03
 cg2d: Sum(rhs),rhsMax =   9.03183356901105E-05  6.61356033978391E-03
 cg2d: Sum(rhs),rhsMax =   9.03729466764126E-05  6.61231715679962E-03
 cg2d: Sum(rhs),rhsMax =   9.04275611894440E-05  6.61107168739313E-03
 cg2d: Sum(rhs),rhsMax =   9.04821847176212E-05  6.60982393968485E-03
 cg2d: Sum(rhs),rhsMax =   9.05368407996560E-05  6.60857480812279E-03
 cg2d: Sum(rhs),rhsMax =   9.05908557976985E-05  6.60737042029193E-03
 cg2d: Sum(rhs),rhsMax =   9.06448894245106E-05  6.60616369219287E-03
 cg2d: Sum(rhs),rhsMax =   9.06989476822280E-05  6.60495463289485E-03
 cg2d: Sum(rhs),rhsMax =   9.07530617078219E-05  6.60374325656152E-03
 cg2d: Sum(rhs),rhsMax =   9.08071656674191E-05  6.60252957307376E-03
 cg2d: Sum(rhs),rhsMax =   9.08612846500078E-05  6.60131359683753E-03
 cg2d: Sum(rhs),rhsMax =   9.09154306734305E-05  6.60009533743196E-03
 cg2d: Sum(rhs),rhsMax =   9.09696042624974E-05  6.59887480900576E-03
 cg2d: Sum(rhs),rhsMax =   9.10237944788108E-05  6.59765202154203E-03
 cg2d: Sum(rhs),rhsMax =   9.10779868834042E-05  6.59642698857997E-03
 cg2d: Sum(rhs),rhsMax =   9.11322527694216E-05  6.59519972046450E-03
 cg2d: Sum(rhs),rhsMax =   9.11865105174417E-05  6.59397023133952E-03
 cg2d: Sum(rhs),rhsMax =   9.12407865895177E-05  6.59273853083367E-03
 cg2d: Sum(rhs),rhsMax =   9.12950830189397E-05  6.59150463290249E-03
 cg2d: Sum(rhs),rhsMax =   9.13494207476877E-05  6.59026854786150E-03
 cg2d: Sum(rhs),rhsMax =   9.14037885242445E-05  6.58903028951622E-03
 cg2d: Sum(rhs),rhsMax =   9.14581928821174E-05  6.58778986726322E-03
 cg2d: Sum(rhs),rhsMax =   9.15125928809450E-05  6.58654729541358E-03
 cg2d: Sum(rhs),rhsMax =   9.15670503281590E-05  6.58530258387923E-03
 cg2d: Sum(rhs),rhsMax =   9.16215204621691E-05  6.58405574669639E-03
 cg2d: Sum(rhs),rhsMax =   9.16760327239622E-05  6.58280679364765E-03
 cg2d: Sum(rhs),rhsMax =   9.17305509588705E-05  6.58155573878783E-03
 cg2d: Sum(rhs),rhsMax =   9.17851248938961E-05  6.58030259176116E-03
 cg2d: Sum(rhs),rhsMax =   9.18396915716175E-05  6.57904736648949E-03
 cg2d: Sum(rhs),rhsMax =   9.18943178017956E-05  6.57779007318113E-03
 cg2d: Sum(rhs),rhsMax =   9.19489626862507E-05  6.57653072540158E-03
 cg2d: Sum(rhs),rhsMax =   9.20036331865763E-05  6.57526933281492E-03
 cg2d: Sum(rhs),rhsMax =   9.20583648213709E-05  6.57400591048180E-03
 cg2d: Sum(rhs),rhsMax =   9.21130877587469E-05  6.57274046688986E-03
 cg2d: Sum(rhs),rhsMax =   9.21678590580337E-05  6.57147301673820E-03
 cg2d: Sum(rhs),rhsMax =   9.22226541715948E-05  6.57020356946913E-03
 cg2d: Sum(rhs),rhsMax =   9.22774969717077E-05  6.56893213897639E-03
 cg2d: Sum(rhs),rhsMax =   9.23323787755601E-05  6.56765873528249E-03
 cg2d: Sum(rhs),rhsMax =   9.23872906052423E-05  6.56638337202256E-03
 cg2d: Sum(rhs),rhsMax =   9.24422269090435E-05  6.56510605898271E-03
 cg2d: Sum(rhs),rhsMax =   9.24971944237640E-05  6.56382681024602E-03
 cg2d: Sum(rhs),rhsMax =   9.25521872556468E-05  6.56254563559065E-03
 cg2d: Sum(rhs),rhsMax =   9.26072216982819E-05  6.56126254915592E-03
 cg2d: Sum(rhs),rhsMax =   9.26622846192677E-05  6.55997756018801E-03
 cg2d: Sum(rhs),rhsMax =   9.27174035298900E-05  6.55869068291215E-03
 cg2d: Sum(rhs),rhsMax =   9.27725468738436E-05  6.55740192678805E-03
 cg2d: Sum(rhs),rhsMax =   9.28277103953244E-05  6.55611130578565E-03
 cg2d: Sum(rhs),rhsMax =   9.28829188523205E-05  6.55481882995360E-03
 cg2d: Sum(rhs),rhsMax =   9.29382066840326E-05  6.55352451200716E-03
 cg2d: Sum(rhs),rhsMax =   9.29934920455436E-05  6.55222836219227E-03
(PID.TID 0000.0001)      cg2d_init_res =   1.21925843299398E-02
(PID.TID 0000.0001)      cg2d_iters(min,last) =      -1     392
(PID.TID 0000.0001)      cg2d_last_res =   9.27547918642093E-08
(PID.TID 0000.0001) // =======================================================
(PID.TID 0000.0001) // Begin MONITOR dynamic field statistics
(PID.TID 0000.0001) // =======================================================
(PID.TID 0000.0001) %MON time_tsnumber                =                  4032
(PID.TID 0000.0001) %MON time_secondsf                =   4.8384000000000E+06
(PID.TID 0000.0001) %MON dynstat_eta_max              =   7.2513452688779E-02
(PID.TID 0000.0001) %MON dynstat_eta_min              =  -1.2915548013767E-01
(PID.TID 0000.0001) %MON dynstat_eta_mean             =  -2.9007475552513E-09
(PID.TID 0000.0001) %MON dynstat_eta_sd               =   5.2482391329773E-02
(PID.TID 0000.0001) %MON dynstat_eta_del2             =   3.1746611202378E-07
(PID.TID 0000.0001) %MON dynstat_uvel_max             =   4.6329558936792E-02
(PID.TID 0000.0001) %MON dynstat_uvel_min             =  -6.3224956387779E-02
(PID.TID 0000.0001) %MON dynstat_uvel_mean            =   5.4670956827587E-08
(PID.TID 0000.0001) %MON dynstat_uvel_sd              =   2.1247829324461E-02
(PID.TID 0000.0001) %MON dynstat_uvel_del2            =   6.1008208334268E-07
(PID.TID 0000.0001) %MON dynstat_vvel_max             =   4.7653801452683E-02
(PID.TID 0000.0001) %MON dynstat_vvel_min             =  -4.2550193279957E-02
(PID.TID 0000.0001) %MON dynstat_vvel_mean            =  -2.4171780432675E-07
(PID.TID 0000.0001) %MON dynstat_vvel_sd              =   1.9282550367163E-02
(PID.TID 0000.0001) %MON dynstat_vvel_del2            =   8.0867462804708E-07
(PID.TID 0000.0001) %MON dynstat_wvel_max             =   2.9037191765383E-08
(PID.TID 0000.0001) %MON dynstat_wvel_min             =  -2.3169118841761E-08
(PID.TID 0000.0001) %MON dynstat_wvel_mean            =   1.1225468114044E-21
(PID.TID 0000.0001) %MON dynstat_wvel_sd              =   1.0347373552410E-08
(PID.TID 0000.0001) %MON dynstat_wvel_del2            =   8.7342182684429E-14
(PID.TID 0000.0001) %MON dynstat_theta_max            =   2.0000000000000E+01
(PID.TID 0000.0001) %MON dynstat_theta_min            =   2.0000000000000E+01
(PID.TID 0000.0001) %MON dynstat_theta_mean           =   1.9999999999999E+01
(PID.TID 0000.0001) %MON dynstat_theta_sd             =   1.1972645097557E-12
(PID.TID 0000.0001) %MON dynstat_theta_del2           =   0.0000000000000E+00
(PID.TID 0000.0001) %MON dynstat_salt_max             =   3.0000000000000E+01
(PID.TID 0000.0001) %MON dynstat_salt_min             =   3.0000000000000E+01
(PID.TID 0000.0001) %MON dynstat_salt_mean            =   2.9999999999998E+01
(PID.TID 0000.0001) %MON dynstat_salt_sd              =   2.1529444893531E-12
(PID.TID 0000.0001) %MON dynstat_salt_del2            =   0.0000000000000E+00
(PID.TID 0000.0001) %MON trAdv_CFL_u_max              =   1.5170815391193E-02
(PID.TID 0000.0001) %MON trAdv_CFL_v_max              =   1.1437365930637E-02
(PID.TID 0000.0001) %MON trAdv_CFL_w_max              =   7.3515604773057E-09
(PID.TID 0000.0001) %MON advcfl_uvel_max              =   1.5173989533067E-02
(PID.TID 0000.0001) %MON advcfl_vvel_max              =   1.1436912348644E-02
(PID.TID 0000.0001) %MON advcfl_wvel_max              =   1.3937852047384E-08
(PID.TID 0000.0001) %MON advcfl_W_hf_max              =   0.0000000000000E+00
(PID.TID 0000.0001) %MON pe_b_mean                    =   2.8181298964134E-06
(PID.TID 0000.0001) %MON ke_max                       =   1.9987515696422E-03
(PID.TID 0000.0001) %MON ke_mean                      =   4.0979053581020E-04
(PID.TID 0000.0001) %MON ke_vol                       =   7.2529629296391E+15
(PID.TID 0000.0001) %MON vort_r_min                   =  -1.9769617319198E-06
(PID.TID 0000.0001) %MON vort_r_max                   =   2.3237910087993E-06
(PID.TID 0000.0001) %MON vort_a_mean                  =   1.0615000000000E-04
(PID.TID 0000.0001) %MON vort_a_sd                    =   3.5806841331107E-06
(PID.TID 0000.0001) %MON vort_p_mean                  =   1.1210870169429E-04
(PID.TID 0000.0001) %MON vort_p_sd                    =   2.1056443030391E-05
(PID.TID 0000.0001) %MON surfExpan_theta_mean         =   2.3270126654467E-20
(PID.TID 0000.0001) %MON surfExpan_salt_mean          =   3.4837597073689E-20
(PID.TID 0000.0001) // =======================================================
(PID.TID 0000.0001) // End MONITOR dynamic field statistics
(PID.TID 0000.0001) // =======================================================
 cg2d: Sum(rhs),rhsMax =   9.30487983215860E-05  6.55093039529235E-03
 cg2d: Sum(rhs),rhsMax =   9.31041853694187E-05  6.54963062040830E-03
 cg2d: Sum(rhs),rhsMax =   9.31595844632640E-05  6.54832905135660E-03
 cg2d: Sum(rhs),rhsMax =   9.32150353325570E-05  6.54702569806151E-03
 cg2d: Sum(rhs),rhsMax =   9.32705118523976E-05  6.54572057310093E-03
 cg2d: Sum(rhs),rhsMax =   9.33260186681221E-05  6.54441368683702E-03
 cg2d: Sum(rhs),rhsMax =   9.33815901143723E-05  6.54310505384543E-03
 cg2d: Sum(rhs),rhsMax =   9.34371845847251E-05  6.54179468303317E-03
 cg2d: Sum(rhs),rhsMax =   9.34928148097463E-05  6.54048258857358E-03
 cg2d: Sum(rhs),rhsMax =   9.35485192412990E-05  6.53916877993753E-03
 cg2d: Sum(rhs),rhsMax =   9.36042277563847E-05  6.53785327090811E-03
 cg2d: Sum(rhs),rhsMax =   9.36600147163225E-05  6.53653607099574E-03
 cg2d: Sum(rhs),rhsMax =   9.37158557955866E-05  6.53521719403144E-03
 cg2d: Sum(rhs),rhsMax =   9.37717035020902E-05  6.53389664941739E-03
 cg2d: Sum(rhs),rhsMax =   9.38276153645461E-05  6.53257445135846E-03
 cg2d: Sum(rhs),rhsMax =   9.38835502632346E-05  6.53125060844348E-03
 cg2d: Sum(rhs),rhsMax =   9.39394994546924E-05  6.52992513389469E-03
 cg2d: Sum(rhs),rhsMax =   9.39955374666471E-05  6.52859804127905E-03
 cg2d: Sum(rhs),rhsMax =   9.40516157550177E-05  6.52726934080186E-03
 cg2d: Sum(rhs),rhsMax =   9.41077310545628E-05  6.52593904208091E-03
 cg2d: Sum(rhs),rhsMax =   9.41638891748704E-05  6.52460716004662E-03
 cg2d: Sum(rhs),rhsMax =   9.42200868390315E-05  6.52327370282309E-03
 cg2d: Sum(rhs),rhsMax =   9.42763556620891E-05  6.52193868407092E-03
 cg2d: Sum(rhs),rhsMax =   9.43326454541848E-05  6.52060211614548E-03
 cg2d: Sum(rhs),rhsMax =   9.43886942084962E-05  6.51928388160905E-03
 cg2d: Sum(rhs),rhsMax =   9.44444764128466E-05  6.51798680943837E-03
 cg2d: Sum(rhs),rhsMax =   9.45002657113747E-05  6.51668811169596E-03
 cg2d: Sum(rhs),rhsMax =   9.45561207656665E-05  6.51538780165938E-03
 cg2d: Sum(rhs),rhsMax =   9.46120342273874E-05  6.51408589102006E-03
 cg2d: Sum(rhs),rhsMax =   9.46680055786816E-05  6.51278239032208E-03
 cg2d: Sum(rhs),rhsMax =   9.47240293711384E-05  6.51147731069757E-03
 cg2d: Sum(rhs),rhsMax =   9.47800800022982E-05  6.51017066356055E-03
 cg2d: Sum(rhs),rhsMax =   9.48361635637936E-05  6.50886246121194E-03
 cg2d: Sum(rhs),rhsMax =   9.48923169260055E-05  6.50755271358106E-03
 cg2d: Sum(rhs),rhsMax =   9.49485277676933E-05  6.50624143335097E-03
 cg2d: Sum(rhs),rhsMax =   9.50047545315172E-05  6.50492863210043E-03
 cg2d: Sum(rhs),rhsMax =   9.50610655768196E-05  6.50361432135120E-03
 cg2d: Sum(rhs),rhsMax =   9.51174101562376E-05  6.50229850962080E-03
 cg2d: Sum(rhs),rhsMax =   9.51738043492942E-05  6.50098121005832E-03
 cg2d: Sum(rhs),rhsMax =   9.52302523947839E-05  6.49966243420339E-03
 cg2d: Sum(rhs),rhsMax =   9.52867387224391E-05  6.49834219372840E-03
 cg2d: Sum(rhs),rhsMax =   9.53432870243491E-05  6.49702049937568E-03
 cg2d: Sum(rhs),rhsMax =   9.53998667585134E-05  6.49569736297069E-03
 cg2d: Sum(rhs),rhsMax =   9.54565099130118E-05  6.49437279512254E-03
 cg2d: Sum(rhs),rhsMax =   9.55132171035350E-05  6.49304680761425E-03
 cg2d: Sum(rhs),rhsMax =   9.55699534169541E-05  6.49171941095425E-03
 cg2d: Sum(rhs),rhsMax =   9.56267405622414E-05  6.49039061802024E-03
 cg2d: Sum(rhs),rhsMax =   9.56835461939521E-05  6.48906044009070E-03
 cg2d: Sum(rhs),rhsMax =   9.57404256374276E-05  6.48772888436276E-03
 cg2d: Sum(rhs),rhsMax =   9.57973436213448E-05  6.48639596549570E-03
 cg2d: Sum(rhs),rhsMax =   9.58543225944575E-05  6.48506169569335E-03
 cg2d: Sum(rhs),rhsMax =   9.59113436233587E-05  6.48372608404207E-03
 cg2d: Sum(rhs),rhsMax =   9.59684234755637E-05  6.48238914299884E-03
 cg2d: Sum(rhs),rhsMax =   9.60255229438024E-05  6.48105088235148E-03
 cg2d: Sum(rhs),rhsMax =   9.60826831472479E-05  6.47971131518924E-03
 cg2d: Sum(rhs),rhsMax =   9.61398682113278E-05  6.47837045029378E-03
 cg2d: Sum(rhs),rhsMax =   9.61970916512154E-05  6.47702830169028E-03
 cg2d: Sum(rhs),rhsMax =   9.62543825974447E-05  6.47568487929423E-03
 cg2d: Sum(rhs),rhsMax =   9.63117102317692E-05  6.47434019356616E-03
 cg2d: Sum(rhs),rhsMax =   9.63690611946481E-05  6.47299425591762E-03
 cg2d: Sum(rhs),rhsMax =   9.64264620458366E-05  6.47164707716465E-03
 cg2d: Sum(rhs),rhsMax =   9.64838978045369E-05  6.47029866778529E-03
 cg2d: Sum(rhs),rhsMax =   9.65413609680370E-05  6.46894904197625E-03
 cg2d: Sum(rhs),rhsMax =   9.65988699530409E-05  6.46759820911261E-03
 cg2d: Sum(rhs),rhsMax =   9.66564171733155E-05  6.46624617945907E-03
 cg2d: Sum(rhs),rhsMax =   9.67140013951864E-05  6.46489296387676E-03
 cg2d: Sum(rhs),rhsMax =   9.67715807424115E-05  6.46353857529320E-03
 cg2d: Sum(rhs),rhsMax =   9.68292094506778E-05  6.46218302286453E-03
 cg2d: Sum(rhs),rhsMax =   9.68868794582163E-05  6.46082631943977E-03
 cg2d: Sum(rhs),rhsMax =   9.69445526496733E-05  6.45946847436444E-03
 cg2d: Sum(rhs),rhsMax =   9.70065605544260E-05  6.45810950169323E-03
 cg2d: Sum(rhs),rhsMax =   9.70685662901108E-05  6.45674940650276E-03
(PID.TID 0000.0001)      cg2d_init_res =   1.22679921350121E-02
(PID.TID 0000.0001)      cg2d_iters(min,last) =      -1     391
(PID.TID 0000.0001)      cg2d_last_res =   9.96691222067464E-08
(PID.TID 0000.0001) // =======================================================
(PID.TID 0000.0001) // Begin MONITOR dynamic field statistics
(PID.TID 0000.0001) // =======================================================
(PID.TID 0000.0001) %MON time_tsnumber                =                  4104
(PID.TID 0000.0001) %MON time_secondsf                =   4.9248000000000E+06
(PID.TID 0000.0001) %MON dynstat_eta_max              =   7.2449905140304E-02
(PID.TID 0000.0001) %MON dynstat_eta_min              =  -1.3112974728874E-01
(PID.TID 0000.0001) %MON dynstat_eta_mean             =  -2.9838328281359E-09
(PID.TID 0000.0001) %MON dynstat_eta_sd               =   5.3161959928470E-02
(PID.TID 0000.0001) %MON dynstat_eta_del2             =   3.2129038235828E-07
(PID.TID 0000.0001) %MON dynstat_uvel_max             =   4.7392524001197E-02
(PID.TID 0000.0001) %MON dynstat_uvel_min             =  -6.4167058593753E-02
(PID.TID 0000.0001) %MON dynstat_uvel_mean            =   3.3589687462402E-08
(PID.TID 0000.0001) %MON dynstat_uvel_sd              =   2.1579703733218E-02
(PID.TID 0000.0001) %MON dynstat_uvel_del2            =   6.1681744399290E-07
(PID.TID 0000.0001) %MON dynstat_vvel_max             =   4.7290899458081E-02
(PID.TID 0000.0001) %MON dynstat_vvel_min             =  -4.3542793272921E-02
(PID.TID 0000.0001) %MON dynstat_vvel_mean            =  -2.4737791981399E-07
(PID.TID 0000.0001) %MON dynstat_vvel_sd              =   1.9488793582024E-02
(PID.TID 0000.0001) %MON dynstat_vvel_del2            =   8.0491894209439E-07
(PID.TID 0000.0001) %MON dynstat_wvel_max             =   3.0025668087183E-08
(PID.TID 0000.0001) %MON dynstat_wvel_min             =  -2.3200046150014E-08
(PID.TID 0000.0001) %MON dynstat_wvel_mean            =   1.7685187748046E-21
(PID.TID 0000.0001) %MON dynstat_wvel_sd              =   1.0261567130773E-08
(PID.TID 0000.0001) %MON dynstat_wvel_del2            =   8.6760549431642E-14
(PID.TID 0000.0001) %MON dynstat_theta_max            =   2.0000000000000E+01
(PID.TID 0000.0001) %MON dynstat_theta_min            =   2.0000000000000E+01
(PID.TID 0000.0001) %MON dynstat_theta_mean           =   1.9999999999999E+01
(PID.TID 0000.0001) %MON dynstat_theta_sd             =   1.1972645097557E-12
(PID.TID 0000.0001) %MON dynstat_theta_del2           =   0.0000000000000E+00
(PID.TID 0000.0001) %MON dynstat_salt_max             =   3.0000000000000E+01
(PID.TID 0000.0001) %MON dynstat_salt_min             =   3.0000000000000E+01
(PID.TID 0000.0001) %MON dynstat_salt_mean            =   2.9999999999998E+01
(PID.TID 0000.0001) %MON dynstat_salt_sd              =   2.1529444893531E-12
(PID.TID 0000.0001) %MON dynstat_salt_del2            =   0.0000000000000E+00
(PID.TID 0000.0001) %MON trAdv_CFL_u_max              =   1.5396986554483E-02
(PID.TID 0000.0001) %MON trAdv_CFL_v_max              =   1.1350612523643E-02
(PID.TID 0000.0001) %MON trAdv_CFL_w_max              =   7.6005826062342E-09
(PID.TID 0000.0001) %MON advcfl_uvel_max              =   1.5400094062501E-02
(PID.TID 0000.0001) %MON advcfl_vvel_max              =   1.1349815869940E-02
(PID.TID 0000.0001) %MON advcfl_wvel_max              =   1.4412320681848E-08
(PID.TID 0000.0001) %MON advcfl_W_hf_max              =   0.0000000000000E+00
(PID.TID 0000.0001) %MON pe_b_mean                    =   2.8915835428626E-06
(PID.TID 0000.0001) %MON ke_max                       =   2.0587229350503E-03
(PID.TID 0000.0001) %MON ke_mean                      =   4.2084539309605E-04
(PID.TID 0000.0001) %MON ke_vol                       =   7.2529629296391E+15
(PID.TID 0000.0001) %MON vort_r_min                   =  -1.9993474555560E-06
(PID.TID 0000.0001) %MON vort_r_max                   =   2.2931956120617E-06
(PID.TID 0000.0001) %MON vort_a_mean                  =   1.0615000000000E-04
(PID.TID 0000.0001) %MON vort_a_sd                    =   3.5810230054593E-06
(PID.TID 0000.0001) %MON vort_p_mean                  =   1.1210870169429E-04
(PID.TID 0000.0001) %MON vort_p_sd                    =   2.1056460904857E-05
(PID.TID 0000.0001) %MON surfExpan_theta_mean         =   3.5284249431785E-20
(PID.TID 0000.0001) %MON surfExpan_salt_mean          =   5.2993685262020E-20
(PID.TID 0000.0001) // =======================================================
(PID.TID 0000.0001) // End MONITOR dynamic field statistics
(PID.TID 0000.0001) // =======================================================
 cg2d: Sum(rhs),rhsMax =   9.71305818195985E-05  6.45538820586649E-03
 cg2d: Sum(rhs),rhsMax =   9.71925834379016E-05  6.45402590753603E-03
 cg2d: Sum(rhs),rhsMax =   9.72545982823860E-05  6.45266252437679E-03
 cg2d: Sum(rhs),rhsMax =   9.73165957223526E-05  6.45129806579557E-03
 cg2d: Sum(rhs),rhsMax =   9.73786007783996E-05  6.44993254327478E-03
 cg2d: Sum(rhs),rhsMax =   9.74405599649588E-05  6.44856596759906E-03
 cg2d: Sum(rhs),rhsMax =   9.75025222429218E-05  6.44719834970111E-03
 cg2d: Sum(rhs),rhsMax =   9.75644043257557E-05  6.44582970048972E-03
 cg2d: Sum(rhs),rhsMax =   9.76262696798435E-05  6.44446003139935E-03
 cg2d: Sum(rhs),rhsMax =   9.76880868801804E-05  6.44308935309207E-03
 cg2d: Sum(rhs),rhsMax =   9.77498757174615E-05  6.44171767632172E-03
 cg2d: Sum(rhs),rhsMax =   9.78115800586762E-05  6.44034501178243E-03
 cg2d: Sum(rhs),rhsMax =   9.78732214319093E-05  6.43897137106366E-03
 cg2d: Sum(rhs),rhsMax =   9.79347671158370E-05  6.43759676437213E-03
 cg2d: Sum(rhs),rhsMax =   9.80012614014885E-05  6.43622120383419E-03
 cg2d: Sum(rhs),rhsMax =   9.80675780687121E-05  6.43484469747868E-03
 cg2d: Sum(rhs),rhsMax =   9.81337504423812E-05  6.43346725951210E-03
 cg2d: Sum(rhs),rhsMax =   9.81996715331505E-05  6.43208889750159E-03
 cg2d: Sum(rhs),rhsMax =   9.82653689754788E-05  6.43070962538581E-03
 cg2d: Sum(rhs),rhsMax =   9.83307910641081E-05  6.42932945074679E-03
 cg2d: Sum(rhs),rhsMax =   9.83959197018679E-05  6.42794838788557E-03
 cg2d: Sum(rhs),rhsMax =   9.84606819044954E-05  6.42656644552540E-03
 cg2d: Sum(rhs),rhsMax =   9.85250634047150E-05  6.42518363510120E-03
 cg2d: Sum(rhs),rhsMax =   9.85890300320867E-05  6.42379996433334E-03
 cg2d: Sum(rhs),rhsMax =   9.86524546636161E-05  6.42241544929389E-03
 cg2d: Sum(rhs),rhsMax =   9.87153242325307E-05  6.42103009640789E-03
 cg2d: Sum(rhs),rhsMax =   9.87867787756854E-05  6.41964391806502E-03
 cg2d: Sum(rhs),rhsMax =   9.88571344673530E-05  6.41825692477777E-03
 cg2d: Sum(rhs),rhsMax =   9.89262727118601E-05  6.41686912858212E-03
 cg2d: Sum(rhs),rhsMax =   9.90033728362084E-05  6.41548053820719E-03
 cg2d: Sum(rhs),rhsMax =   9.90779155629722E-05  6.41411662655012E-03
 cg2d: Sum(rhs),rhsMax =   9.91627294387506E-05  6.41276242417582E-03
 cg2d: Sum(rhs),rhsMax =   9.92521963304356E-05  6.41140734114865E-03
 cg2d: Sum(rhs),rhsMax =   9.93444467694464E-05  6.41005139818058E-03
 cg2d: Sum(rhs),rhsMax =   9.95013665297971E-05  6.40869459543991E-03
 cg2d: Sum(rhs),rhsMax =   9.96477282599155E-05  6.40733694328596E-03
 cg2d: Sum(rhs),rhsMax =   9.97758626446995E-05  6.40597846114177E-03
 cg2d: Sum(rhs),rhsMax =   9.98850917295043E-05  6.40461914956234E-03
 cg2d: Sum(rhs),rhsMax =   9.99878970872397E-05  6.40325902656948E-03
 cg2d: Sum(rhs),rhsMax =   1.00075101424195E-04  6.40189809404762E-03
 cg2d: Sum(rhs),rhsMax =   1.00149237039278E-04  6.40053637393816E-03
 cg2d: Sum(rhs),rhsMax =   1.00212842373225E-04  6.39917386585742E-03
 cg2d: Sum(rhs),rhsMax =   1.00268534828118E-04  6.39781058974153E-03
 cg2d: Sum(rhs),rhsMax =   1.00281890332264E-04  6.39880832112070E-03
 cg2d: Sum(rhs),rhsMax =   1.00289423156303E-04  6.40000424631164E-03
 cg2d: Sum(rhs),rhsMax =   1.00296894616673E-04  6.40119990734957E-03
 cg2d: Sum(rhs),rhsMax =   1.00306917396849E-04  6.40239530394519E-03
 cg2d: Sum(rhs),rhsMax =   1.00322142299911E-04  6.40359043796642E-03
 cg2d: Sum(rhs),rhsMax =   1.00345139278526E-04  6.40478530855729E-03
 cg2d: Sum(rhs),rhsMax =   1.00378539328262E-04  6.40597991680495E-03
 cg2d: Sum(rhs),rhsMax =   1.00424850720069E-04  6.40717426224497E-03
 cg2d: Sum(rhs),rhsMax =   1.00486597432856E-04  6.40836834613029E-03
 cg2d: Sum(rhs),rhsMax =   1.00566182287536E-04  6.40956216812551E-03
 cg2d: Sum(rhs),rhsMax =   1.00653162859757E-04  6.41075571533705E-03
 cg2d: Sum(rhs),rhsMax =   1.00758343066310E-04  6.41194901509343E-03
 cg2d: Sum(rhs),rhsMax =   1.00874178491139E-04  6.41314206933517E-03
 cg2d: Sum(rhs),rhsMax =   1.00925510748349E-04  6.41433484884238E-03
 cg2d: Sum(rhs),rhsMax =   1.00974143424944E-04  6.41552735704294E-03
 cg2d: Sum(rhs),rhsMax =   1.01018257806094E-04  6.41671962670200E-03
 cg2d: Sum(rhs),rhsMax =   1.01061523408222E-04  6.41791162954825E-03
 cg2d: Sum(rhs),rhsMax =   1.01097779070978E-04  6.41910335927937E-03
 cg2d: Sum(rhs),rhsMax =   1.01126460290078E-04  6.42029485700977E-03
 cg2d: Sum(rhs),rhsMax =   1.01156398625176E-04  6.42148608300763E-03
 cg2d: Sum(rhs),rhsMax =   1.01187471232451E-04  6.42267705309541E-03
 cg2d: Sum(rhs),rhsMax =   1.01219542002795E-04  6.42386776598827E-03
 cg2d: Sum(rhs),rhsMax =   1.01247291615180E-04  6.42505821359373E-03
 cg2d: Sum(rhs),rhsMax =   1.01271457921119E-04  6.42624840668897E-03
 cg2d: Sum(rhs),rhsMax =   1.01296112904883E-04  6.42743835033687E-03
 cg2d: Sum(rhs),rhsMax =   1.01321245443341E-04  6.42862803728172E-03
 cg2d: Sum(rhs),rhsMax =   1.01346757690610E-04  6.42981747117780E-03
 cg2d: Sum(rhs),rhsMax =   1.01372669546366E-04  6.43100664674601E-03
 cg2d: Sum(rhs),rhsMax =   1.01398925226363E-04  6.43219557028303E-03
(PID.TID 0000.0001)      cg2d_init_res =   1.21981968661843E-02
(PID.TID 0000.0001)      cg2d_iters(min,last) =      -1     390
(PID.TID 0000.0001)      cg2d_last_res =   9.59232379452501E-08
(PID.TID 0000.0001) // =======================================================
(PID.TID 0000.0001) // Begin MONITOR dynamic field statistics
(PID.TID 0000.0001) // =======================================================
(PID.TID 0000.0001) %MON time_tsnumber                =                  4176
(PID.TID 0000.0001) %MON time_secondsf                =   5.0112000000000E+06
(PID.TID 0000.0001) %MON dynstat_eta_max              =   7.2323162887181E-02
(PID.TID 0000.0001) %MON dynstat_eta_min              =  -1.3310533055432E-01
(PID.TID 0000.0001) %MON dynstat_eta_mean             =  -3.1051507880382E-09
(PID.TID 0000.0001) %MON dynstat_eta_sd               =   5.3845219331431E-02
(PID.TID 0000.0001) %MON dynstat_eta_del2             =   3.2496147318918E-07
(PID.TID 0000.0001) %MON dynstat_uvel_max             =   4.8426039096649E-02
(PID.TID 0000.0001) %MON dynstat_uvel_min             =  -6.5089225377944E-02
(PID.TID 0000.0001) %MON dynstat_uvel_mean            =   1.1389739188084E-08
(PID.TID 0000.0001) %MON dynstat_uvel_sd              =   2.1911508710618E-02
(PID.TID 0000.0001) %MON dynstat_uvel_del2            =   6.2316658545744E-07
(PID.TID 0000.0001) %MON dynstat_vvel_max             =   4.6848283407343E-02
(PID.TID 0000.0001) %MON dynstat_vvel_min             =  -4.4476074184082E-02
(PID.TID 0000.0001) %MON dynstat_vvel_mean            =  -2.5026291209904E-07
(PID.TID 0000.0001) %MON dynstat_vvel_sd              =   1.9689706869902E-02
(PID.TID 0000.0001) %MON dynstat_vvel_del2            =   8.0120578070928E-07
(PID.TID 0000.0001) %MON dynstat_wvel_max             =   3.0765695488080E-08
(PID.TID 0000.0001) %MON dynstat_wvel_min             =  -2.3225422899704E-08
(PID.TID 0000.0001) %MON dynstat_wvel_mean            =   3.8570045818048E-21
(PID.TID 0000.0001) %MON dynstat_wvel_sd              =   1.0192593302558E-08
(PID.TID 0000.0001) %MON dynstat_wvel_del2            =   8.6141528923336E-14
(PID.TID 0000.0001) %MON dynstat_theta_max            =   2.0000000000000E+01
(PID.TID 0000.0001) %MON dynstat_theta_min            =   2.0000000000000E+01
(PID.TID 0000.0001) %MON dynstat_theta_mean           =   1.9999999999999E+01
(PID.TID 0000.0001) %MON dynstat_theta_sd             =   1.1972645097557E-12
(PID.TID 0000.0001) %MON dynstat_theta_del2           =   0.0000000000000E+00
(PID.TID 0000.0001) %MON dynstat_salt_max             =   3.0000000000000E+01
(PID.TID 0000.0001) %MON dynstat_salt_min             =   3.0000000000000E+01
(PID.TID 0000.0001) %MON dynstat_salt_mean            =   2.9999999999998E+01
(PID.TID 0000.0001) %MON dynstat_salt_sd              =   2.1529444893531E-12
(PID.TID 0000.0001) %MON dynstat_salt_del2            =   0.0000000000000E+00
(PID.TID 0000.0001) %MON trAdv_CFL_u_max              =   1.5618372805484E-02
(PID.TID 0000.0001) %MON trAdv_CFL_v_max              =   1.1244654295422E-02
(PID.TID 0000.0001) %MON trAdv_CFL_w_max              =   7.7850679359078E-09
(PID.TID 0000.0001) %MON advcfl_uvel_max              =   1.5621414090707E-02
(PID.TID 0000.0001) %MON advcfl_vvel_max              =   1.1243588017762E-02
(PID.TID 0000.0001) %MON advcfl_wvel_max              =   1.4767533834279E-08
(PID.TID 0000.0001) %MON advcfl_W_hf_max              =   0.0000000000000E+00
(PID.TID 0000.0001) %MON pe_b_mean                    =   2.9663888327122E-06
(PID.TID 0000.0001) %MON ke_max                       =   2.1183019345990E-03
(PID.TID 0000.0001) %MON ke_mean                      =   4.3194623906772E-04
(PID.TID 0000.0001) %MON ke_vol                       =   7.2529629296391E+15
(PID.TID 0000.0001) %MON vort_r_min                   =  -2.0268642297242E-06
(PID.TID 0000.0001) %MON vort_r_max                   =   2.2607421129200E-06
(PID.TID 0000.0001) %MON vort_a_mean                  =   1.0615000000000E-04
(PID.TID 0000.0001) %MON vort_a_sd                    =   3.5813519657479E-06
(PID.TID 0000.0001) %MON vort_p_mean                  =   1.1210870169429E-04
(PID.TID 0000.0001) %MON vort_p_sd                    =   2.1056476208148E-05
(PID.TID 0000.0001) %MON surfExpan_theta_mean         =   7.7063889893932E-20
(PID.TID 0000.0001) %MON surfExpan_salt_mean          =   1.1538807776205E-19
(PID.TID 0000.0001) // =======================================================
(PID.TID 0000.0001) // End MONITOR dynamic field statistics
(PID.TID 0000.0001) // =======================================================
 cg2d: Sum(rhs),rhsMax =   1.01425482398770E-04  6.43338423813519E-03
 cg2d: Sum(rhs),rhsMax =   1.01452322836926E-04  6.43457265395884E-03
 cg2d: Sum(rhs),rhsMax =   1.01479388240141E-04  6.43576081533203E-03
 cg2d: Sum(rhs),rhsMax =   1.01506741043145E-04  6.43694872495105E-03
 cg2d: Sum(rhs),rhsMax =   1.01534247961463E-04  6.43813638058558E-03
 cg2d: Sum(rhs),rhsMax =   1.01561949273473E-04  6.43932378511351E-03
 cg2d: Sum(rhs),rhsMax =   1.01589833562303E-04  6.44051093756066E-03
 cg2d: Sum(rhs),rhsMax =   1.01617884878650E-04  6.44169783906257E-03
 cg2d: Sum(rhs),rhsMax =   1.01646084893005E-04  6.44288448849522E-03
 cg2d: Sum(rhs),rhsMax =   1.01674391584969E-04  6.44407088828706E-03
 cg2d: Sum(rhs),rhsMax =   1.01702841711384E-04  6.44525703713833E-03
 cg2d: Sum(rhs),rhsMax =   1.01731403758726E-04  6.44644293670668E-03
 cg2d: Sum(rhs),rhsMax =   1.01760090294926E-04  6.44762858564058E-03
 cg2d: Sum(rhs),rhsMax =   1.01788860835275E-04  6.44881398597140E-03
 cg2d: Sum(rhs),rhsMax =   1.01817758584114E-04  6.44999913725575E-03
 cg2d: Sum(rhs),rhsMax =   1.01846711420624E-04  6.45118404032988E-03
 cg2d: Sum(rhs),rhsMax =   1.01875756111622E-04  6.45236869596909E-03
 cg2d: Sum(rhs),rhsMax =   1.01904853049609E-04  6.45355310434853E-03
 cg2d: Sum(rhs),rhsMax =   1.01934015081771E-04  6.45473726443005E-03
 cg2d: Sum(rhs),rhsMax =   1.01963246852519E-04  6.45592117762472E-03
 cg2d: Sum(rhs),rhsMax =   1.01992545331470E-04  6.45710484542960E-03
 cg2d: Sum(rhs),rhsMax =   1.02021895097571E-04  6.45828826635501E-03
 cg2d: Sum(rhs),rhsMax =   1.02051284811197E-04  6.45947144213124E-03
 cg2d: Sum(rhs),rhsMax =   1.02080732665044E-04  6.46065437174279E-03
 cg2d: Sum(rhs),rhsMax =   1.02110221782691E-04  6.46183705796236E-03
 cg2d: Sum(rhs),rhsMax =   1.02139733189307E-04  6.46301949944308E-03
 cg2d: Sum(rhs),rhsMax =   1.02169302001656E-04  6.46420169608403E-03
 cg2d: Sum(rhs),rhsMax =   1.02198912041633E-04  6.46538364842082E-03
 cg2d: Sum(rhs),rhsMax =   1.02228524833559E-04  6.46656535877247E-03
 cg2d: Sum(rhs),rhsMax =   1.02258190195293E-04  6.46774682482782E-03
 cg2d: Sum(rhs),rhsMax =   1.02287860737870E-04  6.46892805046401E-03
 cg2d: Sum(rhs),rhsMax =   1.02317573672003E-04  6.47010903122008E-03
 cg2d: Sum(rhs),rhsMax =   1.02347305953340E-04  6.47128977171664E-03
 cg2d: Sum(rhs),rhsMax =   1.02377055910368E-04  6.47247026994109E-03
 cg2d: Sum(rhs),rhsMax =   1.02406807562323E-04  6.47365052863570E-03
 cg2d: Sum(rhs),rhsMax =   1.02436597253861E-04  6.47483054527287E-03
 cg2d: Sum(rhs),rhsMax =   1.02466397478841E-04  6.47601032353724E-03
 cg2d: Sum(rhs),rhsMax =   1.02496218261329E-04  6.47718985976298E-03
 cg2d: Sum(rhs),rhsMax =   1.02526037526096E-04  6.47836915834951E-03
 cg2d: Sum(rhs),rhsMax =   1.02555885133314E-04  6.47954821626915E-03
 cg2d: Sum(rhs),rhsMax =   1.02585745115484E-04  6.48072703748267E-03
 cg2d: Sum(rhs),rhsMax =   1.02615599072371E-04  6.48190561845647E-03
 cg2d: Sum(rhs),rhsMax =   1.02645498026076E-04  6.48308396361984E-03
 cg2d: Sum(rhs),rhsMax =   1.02675370367899E-04  6.48426206902319E-03
 cg2d: Sum(rhs),rhsMax =   1.02705245540390E-04  6.48543993936102E-03
 cg2d: Sum(rhs),rhsMax =   1.02735123747324E-04  6.48661757127154E-03
 cg2d: Sum(rhs),rhsMax =   1.02765028305916E-04  6.48779496910290E-03
 cg2d: Sum(rhs),rhsMax =   1.02794921966888E-04  6.48897212869004E-03
 cg2d: Sum(rhs),rhsMax =   1.02824806271714E-04  6.49014905449745E-03
 cg2d: Sum(rhs),rhsMax =   1.02854701990776E-04  6.49132574413796E-03
 cg2d: Sum(rhs),rhsMax =   1.02884589870330E-04  6.49250220140638E-03
 cg2d: Sum(rhs),rhsMax =   1.02914485078958E-04  6.49367842097189E-03
 cg2d: Sum(rhs),rhsMax =   1.02944377888515E-04  6.49485440965158E-03
 cg2d: Sum(rhs),rhsMax =   1.02974283282707E-04  6.49603016263119E-03
 cg2d: Sum(rhs),rhsMax =   1.03004193525159E-04  6.49720568441820E-03
 cg2d: Sum(rhs),rhsMax =   1.03034076993756E-04  6.49838097088862E-03
 cg2d: Sum(rhs),rhsMax =   1.03063978831975E-04  6.49955602752915E-03
 cg2d: Sum(rhs),rhsMax =   1.03093880019032E-04  6.50073084961715E-03
 cg2d: Sum(rhs),rhsMax =   1.03123762168036E-04  6.50190544360264E-03
 cg2d: Sum(rhs),rhsMax =   1.03153663159102E-04  6.50307980345463E-03
 cg2d: Sum(rhs),rhsMax =   1.03183540361178E-04  6.50425393554391E-03
 cg2d: Sum(rhs),rhsMax =   1.03213438522418E-04  6.50542783416226E-03
 cg2d: Sum(rhs),rhsMax =   1.03243292663757E-04  6.50660150635265E-03
 cg2d: Sum(rhs),rhsMax =   1.03273140937930E-04  6.50777494644874E-03
 cg2d: Sum(rhs),rhsMax =   1.03303027831626E-04  6.50894815908068E-03
 cg2d: Sum(rhs),rhsMax =   1.03332896015489E-04  6.51012114040082E-03
 cg2d: Sum(rhs),rhsMax =   1.03362741335678E-04  6.51129389681356E-03
 cg2d: Sum(rhs),rhsMax =   1.03392608718398E-04  6.51246642204189E-03
 cg2d: Sum(rhs),rhsMax =   1.03422453795535E-04  6.51363872312998E-03
 cg2d: Sum(rhs),rhsMax =   1.03452286239950E-04  6.51481079380179E-03
 cg2d: Sum(rhs),rhsMax =   1.03482111718441E-04  6.51598264116224E-03
 cg2d: Sum(rhs),rhsMax =   1.03511955814537E-04  6.51715425881617E-03
(PID.TID 0000.0001)      cg2d_init_res =   1.19122403205634E-02
(PID.TID 0000.0001)      cg2d_iters(min,last) =      -1     390
(PID.TID 0000.0001)      cg2d_last_res =   9.75428005527439E-08
(PID.TID 0000.0001) // =======================================================
(PID.TID 0000.0001) // Begin MONITOR dynamic field statistics
(PID.TID 0000.0001) // =======================================================
(PID.TID 0000.0001) %MON time_tsnumber                =                  4248
(PID.TID 0000.0001) %MON time_secondsf                =   5.0976000000000E+06
(PID.TID 0000.0001) %MON dynstat_eta_max              =   7.2173133201924E-02
(PID.TID 0000.0001) %MON dynstat_eta_min              =  -1.3508862054691E-01
(PID.TID 0000.0001) %MON dynstat_eta_mean             =  -3.2117951820252E-09
(PID.TID 0000.0001) %MON dynstat_eta_sd               =   5.4532390143142E-02
(PID.TID 0000.0001) %MON dynstat_eta_del2             =   3.2849638763894E-07
(PID.TID 0000.0001) %MON dynstat_uvel_max             =   4.9416682907327E-02
(PID.TID 0000.0001) %MON dynstat_uvel_min             =  -6.5991629446511E-02
(PID.TID 0000.0001) %MON dynstat_uvel_mean            =  -1.0426717486990E-08
(PID.TID 0000.0001) %MON dynstat_uvel_sd              =   2.2240583974558E-02
(PID.TID 0000.0001) %MON dynstat_uvel_del2            =   6.2905350602831E-07
(PID.TID 0000.0001) %MON dynstat_vvel_max             =   4.6347063358621E-02
(PID.TID 0000.0001) %MON dynstat_vvel_min             =  -4.5359055923687E-02
(PID.TID 0000.0001) %MON dynstat_vvel_mean            =  -2.5019204349521E-07
(PID.TID 0000.0001) %MON dynstat_vvel_sd              =   1.9888723329678E-02
(PID.TID 0000.0001) %MON dynstat_vvel_del2            =   7.9780417046699E-07
(PID.TID 0000.0001) %MON dynstat_wvel_max             =   3.1239405815722E-08
(PID.TID 0000.0001) %MON dynstat_wvel_min             =  -2.3239564877003E-08
(PID.TID 0000.0001) %MON dynstat_wvel_mean            =  -1.0210459192103E-23
(PID.TID 0000.0001) %MON dynstat_wvel_sd              =   1.0141222893249E-08
(PID.TID 0000.0001) %MON dynstat_wvel_del2            =   8.5480742331988E-14
(PID.TID 0000.0001) %MON dynstat_theta_max            =   2.0000000000000E+01
(PID.TID 0000.0001) %MON dynstat_theta_min            =   2.0000000000000E+01
(PID.TID 0000.0001) %MON dynstat_theta_mean           =   1.9999999999999E+01
(PID.TID 0000.0001) %MON dynstat_theta_sd             =   1.1972645097557E-12
(PID.TID 0000.0001) %MON dynstat_theta_del2           =   0.0000000000000E+00
(PID.TID 0000.0001) %MON dynstat_salt_max             =   3.0000000000000E+01
(PID.TID 0000.0001) %MON dynstat_salt_min             =   3.0000000000000E+01
(PID.TID 0000.0001) %MON dynstat_salt_mean            =   2.9999999999998E+01
(PID.TID 0000.0001) %MON dynstat_salt_sd              =   2.1529444893531E-12
(PID.TID 0000.0001) %MON dynstat_salt_del2            =   0.0000000000000E+00
(PID.TID 0000.0001) %MON trAdv_CFL_u_max              =   1.5835015262459E-02
(PID.TID 0000.0001) %MON trAdv_CFL_v_max              =   1.1124503440611E-02
(PID.TID 0000.0001) %MON trAdv_CFL_w_max              =   7.9029590038932E-09
(PID.TID 0000.0001) %MON advcfl_uvel_max              =   1.5837991067163E-02
(PID.TID 0000.0001) %MON advcfl_vvel_max              =   1.1123295206069E-02
(PID.TID 0000.0001) %MON advcfl_wvel_max              =   1.4994914791547E-08
(PID.TID 0000.0001) %MON advcfl_W_hf_max              =   0.0000000000000E+00
(PID.TID 0000.0001) %MON pe_b_mean                    =   3.0425858635098E-06
(PID.TID 0000.0001) %MON ke_max                       =   2.1774653752549E-03
(PID.TID 0000.0001) %MON ke_mean                      =   4.4309887013752E-04
(PID.TID 0000.0001) %MON ke_vol                       =   7.2529629296391E+15
(PID.TID 0000.0001) %MON vort_r_min                   =  -2.0539105773781E-06
(PID.TID 0000.0001) %MON vort_r_max                   =   2.2275388042064E-06
(PID.TID 0000.0001) %MON vort_a_mean                  =   1.0615000000000E-04
(PID.TID 0000.0001) %MON vort_a_sd                    =   3.5816720052799E-06
(PID.TID 0000.0001) %MON vort_p_mean                  =   1.1210870169429E-04
(PID.TID 0000.0001) %MON vort_p_sd                    =   2.1056492025435E-05
(PID.TID 0000.0001) %MON surfExpan_theta_mean         =   2.8030955543067E-22
(PID.TID 0000.0001) %MON surfExpan_salt_mean          =   5.7928324485506E-22
(PID.TID 0000.0001) // =======================================================
(PID.TID 0000.0001) // End MONITOR dynamic field statistics
(PID.TID 0000.0001) // =======================================================
 cg2d: Sum(rhs),rhsMax =   1.03541783929201E-04  6.51832565430009E-03
 cg2d: Sum(rhs),rhsMax =   1.03571581774056E-04  6.51949682208914E-03
 cg2d: Sum(rhs),rhsMax =   1.03601388748423E-04  6.52066776585006E-03
 cg2d: Sum(rhs),rhsMax =   1.03631183604477E-04  6.52183848258710E-03
 cg2d: Sum(rhs),rhsMax =   1.03660977793344E-04  6.52300897865668E-03
 cg2d: Sum(rhs),rhsMax =   1.03690772219796E-04  6.52417924731873E-03
 cg2d: Sum(rhs),rhsMax =   1.03720564862430E-04  6.52534929610367E-03
 cg2d: Sum(rhs),rhsMax =   1.03750332977762E-04  6.52651911959243E-03
 cg2d: Sum(rhs),rhsMax =   1.03780103350694E-04  6.52768872093200E-03
 cg2d: Sum(rhs),rhsMax =   1.03809865185061E-04  6.52885809968151E-03
 cg2d: Sum(rhs),rhsMax =   1.03839620227939E-04  6.53002725770054E-03
 cg2d: Sum(rhs),rhsMax =   1.03869358015202E-04  6.53119619334608E-03
 cg2d: Sum(rhs),rhsMax =   1.03899117139712E-04  6.53236490912758E-03
 cg2d: Sum(rhs),rhsMax =   1.03928832031859E-04  6.53353340227935E-03
 cg2d: Sum(rhs),rhsMax =   1.03958540228691E-04  6.53470167885682E-03
 cg2d: Sum(rhs),rhsMax =   1.03988264361778E-04  6.53586973164368E-03
 cg2d: Sum(rhs),rhsMax =   1.04017992704369E-04  6.53703756919100E-03
 cg2d: Sum(rhs),rhsMax =   1.04047675389448E-04  6.53820518527698E-03
 cg2d: Sum(rhs),rhsMax =   1.04077387079862E-04  6.53937258281368E-03
 cg2d: Sum(rhs),rhsMax =   1.04107099875661E-04  6.54053976206936E-03
 cg2d: Sum(rhs),rhsMax =   1.04136803034697E-04  6.54170672506777E-03
 cg2d: Sum(rhs),rhsMax =   1.04166493441096E-04  6.54287346942319E-03
 cg2d: Sum(rhs),rhsMax =   1.04196143734968E-04  6.54403999874804E-03
 cg2d: Sum(rhs),rhsMax =   1.04225826604229E-04  6.54520630932278E-03
 cg2d: Sum(rhs),rhsMax =   1.04255494188099E-04  6.54637240724914E-03
 cg2d: Sum(rhs),rhsMax =   1.04285161327062E-04  6.54753828569286E-03
 cg2d: Sum(rhs),rhsMax =   1.04314841560092E-04  6.54870395210403E-03
 cg2d: Sum(rhs),rhsMax =   1.04344516690348E-04  6.54986940090952E-03
 cg2d: Sum(rhs),rhsMax =   1.04374177106144E-04  6.55103463844829E-03
 cg2d: Sum(rhs),rhsMax =   1.04403849015691E-04  6.55219965894208E-03
 cg2d: Sum(rhs),rhsMax =   1.04433474287909E-04  6.55336446883997E-03
 cg2d: Sum(rhs),rhsMax =   1.04463130570887E-04  6.55452906297143E-03
 cg2d: Sum(rhs),rhsMax =   1.04492763981078E-04  6.55569344773265E-03
 cg2d: Sum(rhs),rhsMax =   1.04522402761479E-04  6.55685761655877E-03
 cg2d: Sum(rhs),rhsMax =   1.04552037734623E-04  6.55802157697019E-03
 cg2d: Sum(rhs),rhsMax =   1.04581685609843E-04  6.55918532267079E-03
 cg2d: Sum(rhs),rhsMax =   1.04611290252570E-04  6.56034886090103E-03
 cg2d: Sum(rhs),rhsMax =   1.04640938764115E-04  6.56151218499283E-03
 cg2d: Sum(rhs),rhsMax =   1.04670567738495E-04  6.56267530258527E-03
 cg2d: Sum(rhs),rhsMax =   1.04700205317924E-04  6.56383820671855E-03
 cg2d: Sum(rhs),rhsMax =   1.04729812060983E-04  6.56500090534037E-03
 cg2d: Sum(rhs),rhsMax =   1.04759438781172E-04  6.56616339129411E-03
 cg2d: Sum(rhs),rhsMax =   1.04789080547442E-04  6.56732567241441E-03
 cg2d: Sum(rhs),rhsMax =   1.04818698199356E-04  6.56848774202944E-03
 cg2d: Sum(rhs),rhsMax =   1.04848320871550E-04  6.56964960754430E-03
 cg2d: Sum(rhs),rhsMax =   1.04877953425070E-04  6.57081126235067E-03
 cg2d: Sum(rhs),rhsMax =   1.04907562790344E-04  6.57197271413223E-03
 cg2d: Sum(rhs),rhsMax =   1.04937213585333E-04  6.57313395551965E-03
 cg2d: Sum(rhs),rhsMax =   1.04966818178209E-04  6.57429499471560E-03
 cg2d: Sum(rhs),rhsMax =   1.04996455241706E-04  6.57545582490215E-03
 cg2d: Sum(rhs),rhsMax =   1.05026085703455E-04  6.57661645378220E-03
 cg2d: Sum(rhs),rhsMax =   1.05055731283154E-04  6.57777687440739E-03
 cg2d: Sum(rhs),rhsMax =   1.05085379606476E-04  6.57893709438915E-03
 cg2d: Sum(rhs),rhsMax =   1.05115020817339E-04  6.58009710678260E-03
 cg2d: Sum(rhs),rhsMax =   1.05144662007786E-04  6.58125691989846E-03
 cg2d: Sum(rhs),rhsMax =   1.05174312863104E-04  6.58241652664043E-03
 cg2d: Sum(rhs),rhsMax =   1.05203970621887E-04  6.58357593391482E-03
 cg2d: Sum(rhs),rhsMax =   1.05233619755498E-04  6.58473513547914E-03
 cg2d: Sum(rhs),rhsMax =   1.05263292654170E-04  6.58589413952468E-03
 cg2d: Sum(rhs),rhsMax =   1.05292964442796E-04  6.58705293850574E-03
 cg2d: Sum(rhs),rhsMax =   1.05322623286799E-04  6.58821154019005E-03
 cg2d: Sum(rhs),rhsMax =   1.05352313974861E-04  6.58936993748710E-03
 cg2d: Sum(rhs),rhsMax =   1.05382009782676E-04  6.59052813931922E-03
 cg2d: Sum(rhs),rhsMax =   1.05411713212630E-04  6.59168613752623E-03
 cg2d: Sum(rhs),rhsMax =   1.05441443719917E-04  6.59284394083435E-03
 cg2d: Sum(rhs),rhsMax =   1.05471149408276E-04  6.59400154129303E-03
 cg2d: Sum(rhs),rhsMax =   1.05500856399293E-04  6.59515894799408E-03
 cg2d: Sum(rhs),rhsMax =   1.05530572799236E-04  6.59631615378220E-03
 cg2d: Sum(rhs),rhsMax =   1.05560300027579E-04  6.59747316447719E-03
 cg2d: Sum(rhs),rhsMax =   1.05590033766438E-04  6.59862997477471E-03
 cg2d: Sum(rhs),rhsMax =   1.05619807441620E-04  6.59978659300638E-03
 cg2d: Sum(rhs),rhsMax =   1.05649553874448E-04  6.60094301090452E-03
(PID.TID 0000.0001)      cg2d_init_res =   1.16267183675016E-02
(PID.TID 0000.0001)      cg2d_iters(min,last) =      -1     390
(PID.TID 0000.0001)      cg2d_last_res =   9.32254337082720E-08
(PID.TID 0000.0001) // =======================================================
(PID.TID 0000.0001) // Begin MONITOR dynamic field statistics
(PID.TID 0000.0001) // =======================================================
(PID.TID 0000.0001) %MON time_tsnumber                =                  4320
(PID.TID 0000.0001) %MON time_secondsf                =   5.1840000000000E+06
(PID.TID 0000.0001) %MON dynstat_eta_max              =   7.2018653834816E-02
(PID.TID 0000.0001) %MON dynstat_eta_min              =  -1.3707215733187E-01
(PID.TID 0000.0001) %MON dynstat_eta_mean             =  -3.3202305801704E-09
(PID.TID 0000.0001) %MON dynstat_eta_sd               =   5.5223333776181E-02
(PID.TID 0000.0001) %MON dynstat_eta_del2             =   3.3191150395206E-07
(PID.TID 0000.0001) %MON dynstat_uvel_max             =   5.0343271949828E-02
(PID.TID 0000.0001) %MON dynstat_uvel_min             =  -6.6874548591788E-02
(PID.TID 0000.0001) %MON dynstat_uvel_mean            =  -3.0416046228172E-08
(PID.TID 0000.0001) %MON dynstat_uvel_sd              =   2.2564395579096E-02
(PID.TID 0000.0001) %MON dynstat_uvel_del2            =   6.3441412027181E-07
(PID.TID 0000.0001) %MON dynstat_vvel_max             =   4.5801138378837E-02
(PID.TID 0000.0001) %MON dynstat_vvel_min             =  -4.6186623965192E-02
(PID.TID 0000.0001) %MON dynstat_vvel_mean            =  -2.4721776358119E-07
(PID.TID 0000.0001) %MON dynstat_vvel_sd              =   2.0089072081791E-02
(PID.TID 0000.0001) %MON dynstat_vvel_del2            =   7.9494779272903E-07
(PID.TID 0000.0001) %MON dynstat_wvel_max             =   3.1447028999683E-08
(PID.TID 0000.0001) %MON dynstat_wvel_min             =  -2.3238596140873E-08
(PID.TID 0000.0001) %MON dynstat_wvel_mean            =  -2.9066597322289E-21
(PID.TID 0000.0001) %MON dynstat_wvel_sd              =   1.0105494519022E-08
(PID.TID 0000.0001) %MON dynstat_wvel_del2            =   8.4713120835819E-14
(PID.TID 0000.0001) %MON dynstat_theta_max            =   2.0000000000000E+01
(PID.TID 0000.0001) %MON dynstat_theta_min            =   2.0000000000000E+01
(PID.TID 0000.0001) %MON dynstat_theta_mean           =   1.9999999999999E+01
(PID.TID 0000.0001) %MON dynstat_theta_sd             =   1.1972645097557E-12
(PID.TID 0000.0001) %MON dynstat_theta_del2           =   0.0000000000000E+00
(PID.TID 0000.0001) %MON dynstat_salt_max             =   3.0000000000000E+01
(PID.TID 0000.0001) %MON dynstat_salt_min             =   3.0000000000000E+01
(PID.TID 0000.0001) %MON dynstat_salt_mean            =   2.9999999999998E+01
(PID.TID 0000.0001) %MON dynstat_salt_sd              =   2.1529444893531E-12
(PID.TID 0000.0001) %MON dynstat_salt_del2            =   0.0000000000000E+00
(PID.TID 0000.0001) %MON trAdv_CFL_u_max              =   1.6046980227870E-02
(PID.TID 0000.0001) %MON trAdv_CFL_v_max              =   1.1081021050594E-02
(PID.TID 0000.0001) %MON trAdv_CFL_w_max              =   7.9515287018030E-09
(PID.TID 0000.0001) %MON advcfl_uvel_max              =   1.6049891662029E-02
(PID.TID 0000.0001) %MON advcfl_vvel_max              =   1.1084789751646E-02
(PID.TID 0000.0001) %MON advcfl_wvel_max              =   1.5094573919848E-08
(PID.TID 0000.0001) %MON advcfl_W_hf_max              =   0.0000000000000E+00
(PID.TID 0000.0001) %MON pe_b_mean                    =   3.1201754745320E-06
(PID.TID 0000.0001) %MON ke_max                       =   2.2361422526776E-03
(PID.TID 0000.0001) %MON ke_mean                      =   4.5430712624926E-04
(PID.TID 0000.0001) %MON ke_vol                       =   7.2529629296391E+15
(PID.TID 0000.0001) %MON vort_r_min                   =  -2.0805348492059E-06
(PID.TID 0000.0001) %MON vort_r_max                   =   2.1944127616681E-06
(PID.TID 0000.0001) %MON vort_a_mean                  =   1.0615000000000E-04
(PID.TID 0000.0001) %MON vort_a_sd                    =   3.5819840745797E-06
(PID.TID 0000.0001) %MON vort_p_mean                  =   1.1210870169429E-04
(PID.TID 0000.0001) %MON vort_p_sd                    =   2.1056511181267E-05
(PID.TID 0000.0001) %MON surfExpan_theta_mean         =  -5.8248667528144E-20
(PID.TID 0000.0001) %MON surfExpan_salt_mean          =  -8.7486939865616E-20
(PID.TID 0000.0001) // =======================================================
(PID.TID 0000.0001) // End MONITOR dynamic field statistics
(PID.TID 0000.0001) // =======================================================
 cg2d: Sum(rhs),rhsMax =   1.05679330003820E-04  6.60209923794784E-03
 cg2d: Sum(rhs),rhsMax =   1.05709120648454E-04  6.60325526499936E-03
 cg2d: Sum(rhs),rhsMax =   1.05738916765323E-04  6.60441110128288E-03
 cg2d: Sum(rhs),rhsMax =   1.05768742878141E-04  6.60556673955131E-03
 cg2d: Sum(rhs),rhsMax =   1.05798557729834E-04  6.60672218786551E-03
 cg2d: Sum(rhs),rhsMax =   1.05828395337244E-04  6.60787743903657E-03
 cg2d: Sum(rhs),rhsMax =   1.05858237833573E-04  6.60903250111920E-03
 cg2d: Sum(rhs),rhsMax =   1.05888109874644E-04  6.61018736686485E-03
 cg2d: Sum(rhs),rhsMax =   1.05917949998334E-04  6.61134204423546E-03
 cg2d: Sum(rhs),rhsMax =   1.05947827842331E-04  6.61249652685236E-03
 cg2d: Sum(rhs),rhsMax =   1.05977760155598E-04  6.61365082165121E-03
 cg2d: Sum(rhs),rhsMax =   1.06007670926277E-04  6.61480492168060E-03
 cg2d: Sum(rhs),rhsMax =   1.06037607354076E-04  6.61595883546519E-03
 cg2d: Sum(rhs),rhsMax =   1.06067541922253E-04  6.61711255576588E-03
 cg2d: Sum(rhs),rhsMax =   1.06097515208399E-04  6.61826608963252E-03
 cg2d: Sum(rhs),rhsMax =   1.06127501425936E-04  6.61941943076450E-03
 cg2d: Sum(rhs),rhsMax =   1.06157486875603E-04  6.62057258754737E-03
 cg2d: Sum(rhs),rhsMax =   1.06187482114002E-04  6.62172555246567E-03
 cg2d: Sum(rhs),rhsMax =   1.06217520600716E-04  6.62287833377940E-03
 cg2d: Sum(rhs),rhsMax =   1.06247544293237E-04  6.62403092411122E-03
 cg2d: Sum(rhs),rhsMax =   1.06277615197214E-04  6.62518333081883E-03
 cg2d: Sum(rhs),rhsMax =   1.06307707814662E-04  6.62633554728862E-03
 cg2d: Sum(rhs),rhsMax =   1.06337792513914E-04  6.62748758221648E-03
 cg2d: Sum(rhs),rhsMax =   1.06367923778859E-04  6.62863942745643E-03
 cg2d: Sum(rhs),rhsMax =   1.06398058001762E-04  6.62979109211895E-03
 cg2d: Sum(rhs),rhsMax =   1.06428191708985E-04  6.63094256849244E-03
 cg2d: Sum(rhs),rhsMax =   1.06458385494904E-04  6.63209386382314E-03
 cg2d: Sum(rhs),rhsMax =   1.06488577411465E-04  6.63324497215764E-03
 cg2d: Sum(rhs),rhsMax =   1.06518801148300E-04  6.63439590134479E-03
 cg2d: Sum(rhs),rhsMax =   1.06549037321158E-04  6.63554664319399E-03
 cg2d: Sum(rhs),rhsMax =   1.06579287963125E-04  6.63669720708782E-03
 cg2d: Sum(rhs),rhsMax =   1.06609562763019E-04  6.63784758536013E-03
 cg2d: Sum(rhs),rhsMax =   1.06639871223553E-04  6.63899778581164E-03
 cg2d: Sum(rhs),rhsMax =   1.06670200550545E-04  6.64014780134285E-03
 cg2d: Sum(rhs),rhsMax =   1.06700561768842E-04  6.64129764043264E-03
 cg2d: Sum(rhs),rhsMax =   1.06730928504636E-04  6.64244729581901E-03
 cg2d: Sum(rhs),rhsMax =   1.06761323988122E-04  6.64359677520260E-03
 cg2d: Sum(rhs),rhsMax =   1.06791743920744E-04  6.64474607148796E-03
 cg2d: Sum(rhs),rhsMax =   1.06822180717270E-04  6.64589519345116E-03
 cg2d: Sum(rhs),rhsMax =   1.06852641181985E-04  6.64704413338690E-03
 cg2d: Sum(rhs),rhsMax =   1.06883124860028E-04  6.64819289822873E-03
 cg2d: Sum(rhs),rhsMax =   1.06913630967966E-04  6.64934148213541E-03
 cg2d: Sum(rhs),rhsMax =   1.06944175666146E-04  6.65048989342734E-03
 cg2d: Sum(rhs),rhsMax =   1.06974748270515E-04  6.65163812414234E-03
 cg2d: Sum(rhs),rhsMax =   1.07005341057407E-04  6.65278618324464E-03
 cg2d: Sum(rhs),rhsMax =   1.07035929143656E-04  6.65393406250674E-03
 cg2d: Sum(rhs),rhsMax =   1.07066566768899E-04  6.65508177106853E-03
 cg2d: Sum(rhs),rhsMax =   1.07097223514732E-04  6.65622930035884E-03
 cg2d: Sum(rhs),rhsMax =   1.07127932597070E-04  6.65737666023546E-03
 cg2d: Sum(rhs),rhsMax =   1.07158650931001E-04  6.65852384219395E-03
 cg2d: Sum(rhs),rhsMax =   1.07189407711342E-04  6.65967085474375E-03
 cg2d: Sum(rhs),rhsMax =   1.07220149642392E-04  6.66081769006869E-03
 cg2d: Sum(rhs),rhsMax =   1.07250947999907E-04  6.66196435800288E-03
 cg2d: Sum(rhs),rhsMax =   1.07286166459718E-04  6.66311085611502E-03
 cg2d: Sum(rhs),rhsMax =   1.07317019754685E-04  6.66425717276710E-03
 cg2d: Sum(rhs),rhsMax =   1.07352296423482E-04  6.66540332912856E-03
 cg2d: Sum(rhs),rhsMax =   1.07387573114740E-04  6.66654930988124E-03
 cg2d: Sum(rhs),rhsMax =   1.07418529169320E-04  6.66769511440818E-03
 cg2d: Sum(rhs),rhsMax =   1.07453875987057E-04  6.66884076201471E-03
 cg2d: Sum(rhs),rhsMax =   1.07484873183268E-04  6.66998622723867E-03
 cg2d: Sum(rhs),rhsMax =   1.07520302445055E-04  6.67113153594764E-03
 cg2d: Sum(rhs),rhsMax =   1.07555741672830E-04  6.67227667054953E-03
 cg2d: Sum(rhs),rhsMax =   1.07586822661250E-04  6.67342163387164E-03
 cg2d: Sum(rhs),rhsMax =   1.07622325919294E-04  6.67456643970007E-03
 cg2d: Sum(rhs),rhsMax =   1.07657856780389E-04  6.67571107382330E-03
 cg2d: Sum(rhs),rhsMax =   1.07689061336727E-04  6.67685553315708E-03
 cg2d: Sum(rhs),rhsMax =   1.07724658323670E-04  6.67799983979478E-03
 cg2d: Sum(rhs),rhsMax =   1.07760280738843E-04  6.67914397542386E-03
 cg2d: Sum(rhs),rhsMax =   1.07791555429181E-04  6.68028794145025E-03
 cg2d: Sum(rhs),rhsMax =   1.07827255904011E-04  6.68143175331609E-03
 cg2d: Sum(rhs),rhsMax =   1.07862970697617E-04  6.68257539602864E-03
 cg2d: Sum(rhs),rhsMax =   1.07894336361822E-04  6.68371886768608E-03
(PID.TID 0000.0001)      cg2d_init_res =   1.13462129169146E-02
(PID.TID 0000.0001)      cg2d_iters(min,last) =      -1     389
(PID.TID 0000.0001)      cg2d_last_res =   9.99807663089259E-08
(PID.TID 0000.0001) // =======================================================
(PID.TID 0000.0001) // Begin MONITOR dynamic field statistics
(PID.TID 0000.0001) // =======================================================
(PID.TID 0000.0001) %MON time_tsnumber                =                  4392
(PID.TID 0000.0001) %MON time_secondsf                =   5.2704000000000E+06
(PID.TID 0000.0001) %MON dynstat_eta_max              =   7.1849609840892E-02
(PID.TID 0000.0001) %MON dynstat_eta_min              =  -1.3905413994985E-01
(PID.TID 0000.0001) %MON dynstat_eta_mean             =  -3.4334540535782E-09
(PID.TID 0000.0001) %MON dynstat_eta_sd               =   5.5917595234483E-02
(PID.TID 0000.0001) %MON dynstat_eta_del2             =   3.3522226446898E-07
(PID.TID 0000.0001) %MON dynstat_uvel_max             =   5.1202867981468E-02
(PID.TID 0000.0001) %MON dynstat_uvel_min             =  -6.7738375237529E-02
(PID.TID 0000.0001) %MON dynstat_uvel_mean            =  -4.7273497738117E-08
(PID.TID 0000.0001) %MON dynstat_uvel_sd              =   2.2880659346232E-02
(PID.TID 0000.0001) %MON dynstat_uvel_del2            =   6.3920213215876E-07
(PID.TID 0000.0001) %MON dynstat_vvel_max             =   4.5922608403912E-02
(PID.TID 0000.0001) %MON dynstat_vvel_min             =  -4.6970574879820E-02
(PID.TID 0000.0001) %MON dynstat_vvel_mean            =  -2.4161185166971E-07
(PID.TID 0000.0001) %MON dynstat_vvel_sd              =   2.0293634783534E-02
(PID.TID 0000.0001) %MON dynstat_vvel_del2            =   7.9283275788520E-07
(PID.TID 0000.0001) %MON dynstat_wvel_max             =   3.1379086511442E-08
(PID.TID 0000.0001) %MON dynstat_wvel_min             =  -2.3216205913341E-08
(PID.TID 0000.0001) %MON dynstat_wvel_mean            =  -5.2049307509854E-21
(PID.TID 0000.0001) %MON dynstat_wvel_sd              =   1.0081094547032E-08
(PID.TID 0000.0001) %MON dynstat_wvel_del2            =   8.3898408423885E-14
(PID.TID 0000.0001) %MON dynstat_theta_max            =   2.0000000000000E+01
(PID.TID 0000.0001) %MON dynstat_theta_min            =   2.0000000000000E+01
(PID.TID 0000.0001) %MON dynstat_theta_mean           =   1.9999999999999E+01
(PID.TID 0000.0001) %MON dynstat_theta_sd             =   1.1972645097557E-12
(PID.TID 0000.0001) %MON dynstat_theta_del2           =   0.0000000000000E+00
(PID.TID 0000.0001) %MON dynstat_salt_max             =   3.0000000000000E+01
(PID.TID 0000.0001) %MON dynstat_salt_min             =   3.0000000000000E+01
(PID.TID 0000.0001) %MON dynstat_salt_mean            =   2.9999999999998E+01
(PID.TID 0000.0001) %MON dynstat_salt_sd              =   2.1529444893531E-12
(PID.TID 0000.0001) %MON dynstat_salt_del2            =   0.0000000000000E+00
(PID.TID 0000.0001) %MON trAdv_CFL_u_max              =   1.6254361489269E-02
(PID.TID 0000.0001) %MON trAdv_CFL_v_max              =   1.1269358127261E-02
(PID.TID 0000.0001) %MON trAdv_CFL_w_max              =   7.9307305422484E-09
(PID.TID 0000.0001) %MON advcfl_uvel_max              =   1.6257210057007E-02
(PID.TID 0000.0001) %MON advcfl_vvel_max              =   1.1272937971157E-02
(PID.TID 0000.0001) %MON advcfl_wvel_max              =   1.5061961525492E-08
(PID.TID 0000.0001) %MON advcfl_W_hf_max              =   0.0000000000000E+00
(PID.TID 0000.0001) %MON pe_b_mean                    =   3.1991216064036E-06
(PID.TID 0000.0001) %MON ke_max                       =   2.2943070673474E-03
(PID.TID 0000.0001) %MON ke_mean                      =   4.6557289537450E-04
(PID.TID 0000.0001) %MON ke_vol                       =   7.2529629296391E+15
(PID.TID 0000.0001) %MON vort_r_min                   =  -2.1067885105181E-06
(PID.TID 0000.0001) %MON vort_r_max                   =   2.1620281951757E-06
(PID.TID 0000.0001) %MON vort_a_mean                  =   1.0615000000000E-04
(PID.TID 0000.0001) %MON vort_a_sd                    =   3.5822890962804E-06
(PID.TID 0000.0001) %MON vort_p_mean                  =   1.1210870169429E-04
(PID.TID 0000.0001) %MON vort_p_sd                    =   2.1056536104326E-05
(PID.TID 0000.0001) %MON surfExpan_theta_mean         =  -1.0398533922502E-19
(PID.TID 0000.0001) %MON surfExpan_salt_mean          =  -1.5580536324981E-19
(PID.TID 0000.0001) // =======================================================
(PID.TID 0000.0001) // End MONITOR dynamic field statistics
(PID.TID 0000.0001) // =======================================================
 cg2d: Sum(rhs),rhsMax =   1.07930112531874E-04  6.68486218867386E-03
 cg2d: Sum(rhs),rhsMax =   1.07965936791713E-04  6.68600534155693E-03
 cg2d: Sum(rhs),rhsMax =   1.07997378312335E-04  6.68714832769333E-03
 cg2d: Sum(rhs),rhsMax =   1.08033266650083E-04  6.68829116235776E-03
 cg2d: Sum(rhs),rhsMax =   1.08069175804760E-04  6.68943383052429E-03
 cg2d: Sum(rhs),rhsMax =   1.08100713910008E-04  6.69057633110407E-03
 cg2d: Sum(rhs),rhsMax =   1.08132282778447E-04  6.69171867868920E-03
 cg2d: Sum(rhs),rhsMax =   1.08163879732180E-04  6.69286086468397E-03
 cg2d: Sum(rhs),rhsMax =   1.08195538994895E-04  6.69400289322746E-03
 cg2d: Sum(rhs),rhsMax =   1.08227197740808E-04  6.69514476118229E-03
 cg2d: Sum(rhs),rhsMax =   1.08258890825915E-04  6.69628647230724E-03
 cg2d: Sum(rhs),rhsMax =   1.08290635003247E-04  6.69742802415407E-03
 cg2d: Sum(rhs),rhsMax =   1.08326792866439E-04  6.69856942542978E-03
 cg2d: Sum(rhs),rhsMax =   1.08358579257395E-04  6.69971065711498E-03
 cg2d: Sum(rhs),rhsMax =   1.08390386542839E-04  6.70085173971994E-03
 cg2d: Sum(rhs),rhsMax =   1.08422258622920E-04  6.70199266351098E-03
 cg2d: Sum(rhs),rhsMax =   1.08454134710240E-04  6.70313343464854E-03
 cg2d: Sum(rhs),rhsMax =   1.08486052156060E-04  6.70427404899242E-03
 cg2d: Sum(rhs),rhsMax =   1.08517988938173E-04  6.70541451031716E-03
 cg2d: Sum(rhs),rhsMax =   1.08549983330756E-04  6.70655481540706E-03
 cg2d: Sum(rhs),rhsMax =   1.08581990574338E-04  6.70769496860231E-03
 cg2d: Sum(rhs),rhsMax =   1.08614052485333E-04  6.70883496678814E-03
 cg2d: Sum(rhs),rhsMax =   1.08646132314395E-04  6.70997481449838E-03
 cg2d: Sum(rhs),rhsMax =   1.08678227560115E-04  6.71111450767508E-03
 cg2d: Sum(rhs),rhsMax =   1.08710373822488E-04  6.71225405160472E-03
 cg2d: Sum(rhs),rhsMax =   1.08742551260317E-04  6.71339344110310E-03
 cg2d: Sum(rhs),rhsMax =   1.08774755567737E-04  6.71453268262183E-03
 cg2d: Sum(rhs),rhsMax =   1.08806994948379E-04  6.71567177159371E-03
 cg2d: Sum(rhs),rhsMax =   1.08839261545737E-04  6.71681071383715E-03
 cg2d: Sum(rhs),rhsMax =   1.08871575857831E-04  6.71794950284104E-03
 cg2d: Sum(rhs),rhsMax =   1.08903908639658E-04  6.71908814630553E-03
 cg2d: Sum(rhs),rhsMax =   1.08936292562827E-04  6.72022663780013E-03
 cg2d: Sum(rhs),rhsMax =   1.08968668240927E-04  6.72136498489319E-03
 cg2d: Sum(rhs),rhsMax =   1.09001101389503E-04  6.72250318195856E-03
 cg2d: Sum(rhs),rhsMax =   1.09033586264905E-04  6.72364123529379E-03
 cg2d: Sum(rhs),rhsMax =   1.09066071211888E-04  6.72477913774182E-03
 cg2d: Sum(rhs),rhsMax =   1.09098609884337E-04  6.72591689813761E-03
 cg2d: Sum(rhs),rhsMax =   1.09131170103692E-04  6.72705450886193E-03
 cg2d: Sum(rhs),rhsMax =   1.09163755045081E-04  6.72819197943755E-03
 cg2d: Sum(rhs),rhsMax =   1.09196382611542E-04  6.72932930111250E-03
 cg2d: Sum(rhs),rhsMax =   1.09229025671523E-04  6.73046648284174E-03
 cg2d: Sum(rhs),rhsMax =   1.09261734803461E-04  6.73160351593586E-03
 cg2d: Sum(rhs),rhsMax =   1.09294455864875E-04  6.73274041076736E-03
 cg2d: Sum(rhs),rhsMax =   1.09327204695935E-04  6.73387715830437E-03
 cg2d: Sum(rhs),rhsMax =   1.09359972120741E-04  6.73501376911677E-03
 cg2d: Sum(rhs),rhsMax =   1.09392794886965E-04  6.73615023289150E-03
 cg2d: Sum(rhs),rhsMax =   1.09425633209074E-04  6.73728656068000E-03
 cg2d: Sum(rhs),rhsMax =   1.09458517046489E-04  6.73842274183867E-03
 cg2d: Sum(rhs),rhsMax =   1.09491413472287E-04  6.73955878827110E-03
 cg2d: Sum(rhs),rhsMax =   1.09524346140679E-04  6.74069469027333E-03
 cg2d: Sum(rhs),rhsMax =   1.09557311172512E-04  6.74183045823772E-03
 cg2d: Sum(rhs),rhsMax =   1.09590314378645E-04  6.74296608215634E-03
 cg2d: Sum(rhs),rhsMax =   1.09623316420598E-04  6.74410157276250E-03
 cg2d: Sum(rhs),rhsMax =   1.09656373302903E-04  6.74523692140605E-03
 cg2d: Sum(rhs),rhsMax =   1.09689460655997E-04  6.74637213728757E-03
 cg2d: Sum(rhs),rhsMax =   1.09722585544407E-04  6.74750721080235E-03
 cg2d: Sum(rhs),rhsMax =   1.09755720108544E-04  6.74864215412412E-03
 cg2d: Sum(rhs),rhsMax =   1.09788903028762E-04  6.74977695525954E-03
 cg2d: Sum(rhs),rhsMax =   1.09822081328048E-04  6.75091162647062E-03
 cg2d: Sum(rhs),rhsMax =   1.09855311312230E-04  6.75204615861485E-03
 cg2d: Sum(rhs),rhsMax =   1.09888566560332E-04  6.75318056127349E-03
 cg2d: Sum(rhs),rhsMax =   1.09921851172890E-04  6.75431482435330E-03
 cg2d: Sum(rhs),rhsMax =   1.09955176536577E-04  6.75544896016685E-03
 cg2d: Sum(rhs),rhsMax =   1.09988507666557E-04  6.75658295684431E-03
 cg2d: Sum(rhs),rhsMax =   1.10021864764550E-04  6.75771682665878E-03
 cg2d: Sum(rhs),rhsMax =   1.10055270554927E-04  6.75885055967897E-03
 cg2d: Sum(rhs),rhsMax =   1.10088719909323E-04  6.75998416712375E-03
 cg2d: Sum(rhs),rhsMax =   1.10122158258094E-04  6.76111763729841E-03
 cg2d: Sum(rhs),rhsMax =   1.10155618281278E-04  6.76225098268044E-03
 cg2d: Sum(rhs),rhsMax =   1.10189126517900E-04  6.76338419359331E-03
 cg2d: Sum(rhs),rhsMax =   1.10222647260121E-04  6.76451727913623E-03
 cg2d: Sum(rhs),rhsMax =   1.10256201205212E-04  6.76565023099548E-03
(PID.TID 0000.0001)      cg2d_init_res =   1.10761587705464E-02
(PID.TID 0000.0001)      cg2d_iters(min,last) =      -1     390
(PID.TID 0000.0001)      cg2d_last_res =   9.43332926560666E-08
(PID.TID 0000.0001) // =======================================================
(PID.TID 0000.0001) // Begin MONITOR dynamic field statistics
(PID.TID 0000.0001) // =======================================================
(PID.TID 0000.0001) %MON time_tsnumber                =                  4464
(PID.TID 0000.0001) %MON time_secondsf                =   5.3568000000000E+06
(PID.TID 0000.0001) %MON dynstat_eta_max              =   7.1679462051637E-02
(PID.TID 0000.0001) %MON dynstat_eta_min              =  -1.4103230988759E-01
(PID.TID 0000.0001) %MON dynstat_eta_mean             =  -3.5515152914441E-09
(PID.TID 0000.0001) %MON dynstat_eta_sd               =   5.6614448232977E-02
(PID.TID 0000.0001) %MON dynstat_eta_del2             =   3.3844313023604E-07
(PID.TID 0000.0001) %MON dynstat_uvel_max             =   5.1977133710394E-02
(PID.TID 0000.0001) %MON dynstat_uvel_min             =  -6.8583622212206E-02
(PID.TID 0000.0001) %MON dynstat_uvel_mean            =  -5.9904646635384E-08
(PID.TID 0000.0001) %MON dynstat_uvel_sd              =   2.3187447079945E-02
(PID.TID 0000.0001) %MON dynstat_uvel_del2            =   6.4339398985307E-07
(PID.TID 0000.0001) %MON dynstat_vvel_max             =   4.6861508534290E-02
(PID.TID 0000.0001) %MON dynstat_vvel_min             =  -4.7698013235265E-02
(PID.TID 0000.0001) %MON dynstat_vvel_mean            =  -2.3383946997280E-07
(PID.TID 0000.0001) %MON dynstat_vvel_sd              =   2.0504820218324E-02
(PID.TID 0000.0001) %MON dynstat_vvel_del2            =   7.9161587964185E-07
(PID.TID 0000.0001) %MON dynstat_wvel_max             =   3.1043944526464E-08
(PID.TID 0000.0001) %MON dynstat_wvel_min             =  -2.3171021358576E-08
(PID.TID 0000.0001) %MON dynstat_wvel_mean            =   6.6431710395515E-21
(PID.TID 0000.0001) %MON dynstat_wvel_sd              =   1.0062205644752E-08
(PID.TID 0000.0001) %MON dynstat_wvel_del2            =   8.2997166366151E-14
(PID.TID 0000.0001) %MON dynstat_theta_max            =   2.0000000000000E+01
(PID.TID 0000.0001) %MON dynstat_theta_min            =   2.0000000000000E+01
(PID.TID 0000.0001) %MON dynstat_theta_mean           =   1.9999999999999E+01
(PID.TID 0000.0001) %MON dynstat_theta_sd             =   1.1972645097557E-12
(PID.TID 0000.0001) %MON dynstat_theta_del2           =   0.0000000000000E+00
(PID.TID 0000.0001) %MON dynstat_salt_max             =   3.0000000000000E+01
(PID.TID 0000.0001) %MON dynstat_salt_min             =   3.0000000000000E+01
(PID.TID 0000.0001) %MON dynstat_salt_mean            =   2.9999999999998E+01
(PID.TID 0000.0001) %MON dynstat_salt_sd              =   2.1529444893531E-12
(PID.TID 0000.0001) %MON dynstat_salt_del2            =   0.0000000000000E+00
(PID.TID 0000.0001) %MON trAdv_CFL_u_max              =   1.6457281720124E-02
(PID.TID 0000.0001) %MON trAdv_CFL_v_max              =   1.1444070327132E-02
(PID.TID 0000.0001) %MON trAdv_CFL_w_max              =   7.8415904797739E-09
(PID.TID 0000.0001) %MON advcfl_uvel_max              =   1.6460069330930E-02
(PID.TID 0000.0001) %MON advcfl_vvel_max              =   1.1447523176464E-02
(PID.TID 0000.0001) %MON advcfl_wvel_max              =   1.4901093372703E-08
(PID.TID 0000.0001) %MON advcfl_W_hf_max              =   0.0000000000000E+00
(PID.TID 0000.0001) %MON pe_b_mean                    =   3.2793542598220E-06
(PID.TID 0000.0001) %MON ke_max                       =   2.3519449856290E-03
(PID.TID 0000.0001) %MON ke_mean                      =   4.7689627875136E-04
(PID.TID 0000.0001) %MON ke_vol                       =   7.2529629296391E+15
(PID.TID 0000.0001) %MON vort_r_min                   =  -2.1327266979522E-06
(PID.TID 0000.0001) %MON vort_r_max                   =   2.1313928572702E-06
(PID.TID 0000.0001) %MON vort_a_mean                  =   1.0615000000000E-04
(PID.TID 0000.0001) %MON vort_a_sd                    =   3.5825879991025E-06
(PID.TID 0000.0001) %MON vort_p_mean                  =   1.1210870169429E-04
(PID.TID 0000.0001) %MON vort_p_sd                    =   2.1056568720968E-05
(PID.TID 0000.0001) %MON surfExpan_theta_mean         =   1.3292392399577E-19
(PID.TID 0000.0001) %MON surfExpan_salt_mean          =   1.9949937369719E-19
(PID.TID 0000.0001) // =======================================================
(PID.TID 0000.0001) // End MONITOR dynamic field statistics
(PID.TID 0000.0001) // =======================================================
 cg2d: Sum(rhs),rhsMax =   1.10289783088306E-04  6.76678305971782E-03
 cg2d: Sum(rhs),rhsMax =   1.10323400319496E-04  6.76791575546172E-03
 cg2d: Sum(rhs),rhsMax =   1.10357022861826E-04  6.76904832917129E-03
 cg2d: Sum(rhs),rhsMax =   1.10390705313018E-04  6.77018077059892E-03
 cg2d: Sum(rhs),rhsMax =   1.10424399509290E-04  6.77131309098436E-03
 cg2d: Sum(rhs),rhsMax =   1.10458123236782E-04  6.77244528018811E-03
 cg2d: Sum(rhs),rhsMax =   1.10491847495139E-04  6.77357734991389E-03
 cg2d: Sum(rhs),rhsMax =   1.10525606991587E-04  6.77470928818017E-03
 cg2d: Sum(rhs),rhsMax =   1.10559382704469E-04  6.77584110754285E-03
 cg2d: Sum(rhs),rhsMax =   1.10593209685811E-04  6.77697279771041E-03
 cg2d: Sum(rhs),rhsMax =   1.10627038994815E-04  6.77810437020434E-03
 cg2d: Sum(rhs),rhsMax =   1.10660893090763E-04  6.77923581437717E-03
 cg2d: Sum(rhs),rhsMax =   1.10694789004216E-04  6.78036714099750E-03
 cg2d: Sum(rhs),rhsMax =   1.10728711521711E-04  6.78149834059730E-03
 cg2d: Sum(rhs),rhsMax =   1.10762615981680E-04  6.78262942398564E-03
 cg2d: Sum(rhs),rhsMax =   1.10796570420913E-04  6.78376038139514E-03
 cg2d: Sum(rhs),rhsMax =   1.10830537143713E-04  6.78489122379294E-03
 cg2d: Sum(rhs),rhsMax =   1.10864543851103E-04  6.78602194064992E-03
 cg2d: Sum(rhs),rhsMax =   1.10898570399561E-04  6.78715254357765E-03
 cg2d: Sum(rhs),rhsMax =   1.10932619914139E-04  6.78828302252338E-03
 cg2d: Sum(rhs),rhsMax =   1.10966675389104E-04  6.78941338736286E-03
 cg2d: Sum(rhs),rhsMax =   1.11000763675926E-04  6.79054362933326E-03
 cg2d: Sum(rhs),rhsMax =   1.11034862044990E-04  6.79167375957747E-03
 cg2d: Sum(rhs),rhsMax =   1.11068996356968E-04  6.79280376791131E-03
 cg2d: Sum(rhs),rhsMax =   1.11103154101348E-04  6.79393366452878E-03
 cg2d: Sum(rhs),rhsMax =   1.11137323568815E-04  6.79506344025997E-03
 cg2d: Sum(rhs),rhsMax =   1.11171498603394E-04  6.79619310572494E-03
 cg2d: Sum(rhs),rhsMax =   1.11205708001418E-04  6.79732265129904E-03
 cg2d: Sum(rhs),rhsMax =   1.11239956635506E-04  6.79845208744219E-03
 cg2d: Sum(rhs),rhsMax =   1.11274179027745E-04  6.79958140535556E-03
 cg2d: Sum(rhs),rhsMax =   1.11308436188126E-04  6.80071061365199E-03
 cg2d: Sum(rhs),rhsMax =   1.11342710289922E-04  6.80183970492027E-03
 cg2d: Sum(rhs),rhsMax =   1.11377024154227E-04  6.80296868878067E-03
 cg2d: Sum(rhs),rhsMax =   1.11411326557316E-04  6.80409755563226E-03
 cg2d: Sum(rhs),rhsMax =   1.11445663272234E-04  6.80522631598855E-03
 cg2d: Sum(rhs),rhsMax =   1.11479990714094E-04  6.80635496102971E-03
 cg2d: Sum(rhs),rhsMax =   1.11514378399131E-04  6.80748350069384E-03
 cg2d: Sum(rhs),rhsMax =   1.11548767601201E-04  6.80861192536511E-03
 cg2d: Sum(rhs),rhsMax =   1.11583165595979E-04  6.80974024544135E-03
 cg2d: Sum(rhs),rhsMax =   1.11617582147016E-04  6.81086845209685E-03
 cg2d: Sum(rhs),rhsMax =   1.11652015460696E-04  6.81199655490601E-03
 cg2d: Sum(rhs),rhsMax =   1.11686453876715E-04  6.81312454598417E-03
 cg2d: Sum(rhs),rhsMax =   1.11720924839809E-04  6.81425243476467E-03
 cg2d: Sum(rhs),rhsMax =   1.11755388937543E-04  6.81538021144551E-03
 cg2d: Sum(rhs),rhsMax =   1.11789889276626E-04  6.81650788656530E-03
 cg2d: Sum(rhs),rhsMax =   1.11824406348987E-04  6.81763545121343E-03
 cg2d: Sum(rhs),rhsMax =   1.11858930921710E-04  6.81876291516923E-03
 cg2d: Sum(rhs),rhsMax =   1.11893463941124E-04  6.81989027009744E-03
 cg2d: Sum(rhs),rhsMax =   1.11928007318670E-04  6.82101752514701E-03
 cg2d: Sum(rhs),rhsMax =   1.11962570371659E-04  6.82214467287192E-03
 cg2d: Sum(rhs),rhsMax =   1.11997151459161E-04  6.82327172153523E-03
 cg2d: Sum(rhs),rhsMax =   1.12031744890314E-04  6.82439866372288E-03
 cg2d: Sum(rhs),rhsMax =   1.12066338574765E-04  6.82552550709128E-03
 cg2d: Sum(rhs),rhsMax =   1.12100976078197E-04  6.82665224476376E-03
 cg2d: Sum(rhs),rhsMax =   1.12135612324330E-04  6.82777888581048E-03
 cg2d: Sum(rhs),rhsMax =   1.12170261823764E-04  6.82890542181018E-03
 cg2d: Sum(rhs),rhsMax =   1.12204914164166E-04  6.83003186202061E-03
 cg2d: Sum(rhs),rhsMax =   1.12239575289449E-04  6.83115819864370E-03
 cg2d: Sum(rhs),rhsMax =   1.12274260325436E-04  6.83228444026834E-03
 cg2d: Sum(rhs),rhsMax =   1.12308964481003E-04  6.83341057894668E-03
 cg2d: Sum(rhs),rhsMax =   1.12343653837261E-04  6.83453662437173E-03
 cg2d: Sum(rhs),rhsMax =   1.12378367743066E-04  6.83566256759039E-03
 cg2d: Sum(rhs),rhsMax =   1.12413083978050E-04  6.83678841867288E-03
 cg2d: Sum(rhs),rhsMax =   1.12447805442696E-04  6.83791416928983E-03
 cg2d: Sum(rhs),rhsMax =   1.12482563320244E-04  6.83903982785538E-03
 cg2d: Sum(rhs),rhsMax =   1.12517315112025E-04  6.84016538660077E-03
 cg2d: Sum(rhs),rhsMax =   1.12552089306649E-04  6.84129085456317E-03
 cg2d: Sum(rhs),rhsMax =   1.12586847825947E-04  6.84241622352469E-03
 cg2d: Sum(rhs),rhsMax =   1.12621624355957E-04  6.84354150350829E-03
 cg2d: Sum(rhs),rhsMax =   1.12656428623304E-04  6.84466668569951E-03
 cg2d: Sum(rhs),rhsMax =   1.12691206439417E-04  6.84579177991951E-03
 cg2d: Sum(rhs),rhsMax =   1.12726021176317E-04  6.84691677687396E-03
(PID.TID 0000.0001)      cg2d_init_res =   1.08214680212624E-02
(PID.TID 0000.0001)      cg2d_iters(min,last) =      -1     390
(PID.TID 0000.0001)      cg2d_last_res =   9.75859976360960E-08
(PID.TID 0000.0001) // =======================================================
(PID.TID 0000.0001) // Begin MONITOR dynamic field statistics
(PID.TID 0000.0001) // =======================================================
(PID.TID 0000.0001) %MON time_tsnumber                =                  4536
(PID.TID 0000.0001) %MON time_secondsf                =   5.4432000000000E+06
(PID.TID 0000.0001) %MON dynstat_eta_max              =   7.1527737106727E-02
(PID.TID 0000.0001) %MON dynstat_eta_min              =  -1.4300408451832E-01
(PID.TID 0000.0001) %MON dynstat_eta_mean             =  -3.6746909040021E-09
(PID.TID 0000.0001) %MON dynstat_eta_sd               =   5.7312943449492E-02
(PID.TID 0000.0001) %MON dynstat_eta_del2             =   3.4158773206089E-07
(PID.TID 0000.0001) %MON dynstat_uvel_max             =   5.2655880501090E-02
(PID.TID 0000.0001) %MON dynstat_uvel_min             =  -6.9410923520974E-02
(PID.TID 0000.0001) %MON dynstat_uvel_mean            =  -6.7483645819525E-08
(PID.TID 0000.0001) %MON dynstat_uvel_sd              =   2.3483272320007E-02
(PID.TID 0000.0001) %MON dynstat_uvel_del2            =   6.4699217269598E-07
(PID.TID 0000.0001) %MON dynstat_vvel_max             =   4.7808223067247E-02
(PID.TID 0000.0001) %MON dynstat_vvel_min             =  -4.8397284668550E-02
(PID.TID 0000.0001) %MON dynstat_vvel_mean            =  -2.2452227361938E-07
(PID.TID 0000.0001) %MON dynstat_vvel_sd              =   2.0724464038230E-02
(PID.TID 0000.0001) %MON dynstat_vvel_del2            =   7.9141317706863E-07
(PID.TID 0000.0001) %MON dynstat_wvel_max             =   3.0471124710166E-08
(PID.TID 0000.0001) %MON dynstat_wvel_min             =  -2.3097470338689E-08
(PID.TID 0000.0001) %MON dynstat_wvel_mean            =  -2.6669093031291E-21
(PID.TID 0000.0001) %MON dynstat_wvel_sd              =   1.0042601015316E-08
(PID.TID 0000.0001) %MON dynstat_wvel_del2            =   8.2107125672929E-14
(PID.TID 0000.0001) %MON dynstat_theta_max            =   2.0000000000000E+01
(PID.TID 0000.0001) %MON dynstat_theta_min            =   2.0000000000000E+01
(PID.TID 0000.0001) %MON dynstat_theta_mean           =   1.9999999999999E+01
(PID.TID 0000.0001) %MON dynstat_theta_sd             =   1.1972645097557E-12
(PID.TID 0000.0001) %MON dynstat_theta_del2           =   0.0000000000000E+00
(PID.TID 0000.0001) %MON dynstat_salt_max             =   3.0000000000000E+01
(PID.TID 0000.0001) %MON dynstat_salt_min             =   3.0000000000000E+01
(PID.TID 0000.0001) %MON dynstat_salt_mean            =   2.9999999999998E+01
(PID.TID 0000.0001) %MON dynstat_salt_sd              =   2.1529444893531E-12
(PID.TID 0000.0001) %MON dynstat_salt_del2            =   0.0000000000000E+00
(PID.TID 0000.0001) %MON trAdv_CFL_u_max              =   1.6655892682408E-02
(PID.TID 0000.0001) %MON trAdv_CFL_v_max              =   1.1611897814597E-02
(PID.TID 0000.0001) %MON trAdv_CFL_w_max              =   7.6915934377430E-09
(PID.TID 0000.0001) %MON advcfl_uvel_max              =   1.6658621645034E-02
(PID.TID 0000.0001) %MON advcfl_vvel_max              =   1.1615348320452E-02
(PID.TID 0000.0001) %MON advcfl_wvel_max              =   1.4626139860880E-08
(PID.TID 0000.0001) %MON advcfl_W_hf_max              =   0.0000000000000E+00
(PID.TID 0000.0001) %MON pe_b_mean                    =   3.3607731855132E-06
(PID.TID 0000.0001) %MON ke_max                       =   2.4090523271057E-03
(PID.TID 0000.0001) %MON ke_mean                      =   4.8827589029447E-04
(PID.TID 0000.0001) %MON ke_vol                       =   7.2529629296391E+15
(PID.TID 0000.0001) %MON vort_r_min                   =  -2.1588406641523E-06
(PID.TID 0000.0001) %MON vort_r_max                   =   2.1030280128612E-06
(PID.TID 0000.0001) %MON vort_a_mean                  =   1.0615000000000E-04
(PID.TID 0000.0001) %MON vort_a_sd                    =   3.5828817628682E-06
(PID.TID 0000.0001) %MON vort_p_mean                  =   1.1210870169429E-04
(PID.TID 0000.0001) %MON vort_p_sd                    =   2.1056610380221E-05
(PID.TID 0000.0001) %MON surfExpan_theta_mean         =  -5.3125658630219E-20
(PID.TID 0000.0001) %MON surfExpan_salt_mean          =  -7.9758616996359E-20
(PID.TID 0000.0001) // =======================================================
(PID.TID 0000.0001) // End MONITOR dynamic field statistics
(PID.TID 0000.0001) // =======================================================
 cg2d: Sum(rhs),rhsMax =   1.12760837003393E-04  6.84804168696947E-03
 cg2d: Sum(rhs),rhsMax =   1.12795674303742E-04  6.84916650105329E-03
 cg2d: Sum(rhs),rhsMax =   1.12830486667957E-04  6.85029122884751E-03
 cg2d: Sum(rhs),rhsMax =   1.12865320146037E-04  6.85141586271443E-03
 cg2d: Sum(rhs),rhsMax =   1.12900164578474E-04  6.85254041161851E-03
 cg2d: Sum(rhs),rhsMax =   1.12935013296297E-04  6.85366486565347E-03
 cg2d: Sum(rhs),rhsMax =   1.12969860167423E-04  6.85478923618406E-03
 cg2d: Sum(rhs),rhsMax =   1.13004736153887E-04  6.85591351367817E-03
 cg2d: Sum(rhs),rhsMax =   1.13039600295240E-04  6.85703770830359E-03
 cg2d: Sum(rhs),rhsMax =   1.13074471498121E-04  6.85816181120326E-03
 cg2d: Sum(rhs),rhsMax =   1.13109349778844E-04  6.85928583233608E-03
 cg2d: Sum(rhs),rhsMax =   1.13144237006312E-04  6.86040976262260E-03
 cg2d: Sum(rhs),rhsMax =   1.13179107870784E-04  6.86153361218921E-03
 cg2d: Sum(rhs),rhsMax =   1.13214004007863E-04  6.86265737233413E-03
 cg2d: Sum(rhs),rhsMax =   1.13248901433161E-04  6.86378105245336E-03
 cg2d: Sum(rhs),rhsMax =   1.13283773348675E-04  6.86490464368149E-03
 cg2d: Sum(rhs),rhsMax =   1.13318692552073E-04  6.86602815629258E-03
 cg2d: Sum(rhs),rhsMax =   1.13353596884266E-04  6.86715158152414E-03
 cg2d: Sum(rhs),rhsMax =   1.13388494484690E-04  6.86827492912493E-03
 cg2d: Sum(rhs),rhsMax =   1.13423420057743E-04  6.86939819043264E-03
 cg2d: Sum(rhs),rhsMax =   1.13458322691225E-04  6.87052137447594E-03
 cg2d: Sum(rhs),rhsMax =   1.13493230137901E-04  6.87164447462891E-03
 cg2d: Sum(rhs),rhsMax =   1.13528146774610E-04  6.87276749875042E-03
 cg2d: Sum(rhs),rhsMax =   1.13563064961616E-04  6.87389043775844E-03
 cg2d: Sum(rhs),rhsMax =   1.13598000286566E-04  6.87501330274639E-03
 cg2d: Sum(rhs),rhsMax =   1.13632939462805E-04  6.87613608377774E-03
 cg2d: Sum(rhs),rhsMax =   1.13667846084768E-04  6.87725879136513E-03
 cg2d: Sum(rhs),rhsMax =   1.13702772947973E-04  6.87838141690648E-03
 cg2d: Sum(rhs),rhsMax =   1.13737690224213E-04  6.87950396986369E-03
 cg2d: Sum(rhs),rhsMax =   1.13772630760364E-04  6.88062644188312E-03
 cg2d: Sum(rhs),rhsMax =   1.13807569474465E-04  6.88174884232207E-03
 cg2d: Sum(rhs),rhsMax =   1.13842494193267E-04  6.88287116323284E-03
 cg2d: Sum(rhs),rhsMax =   1.13877391008454E-04  6.88399341457073E-03
 cg2d: Sum(rhs),rhsMax =   1.13912300201259E-04  6.88511558523978E-03
 cg2d: Sum(rhs),rhsMax =   1.13947188523100E-04  6.88623768619020E-03
 cg2d: Sum(rhs),rhsMax =   1.13982128108423E-04  6.88735971046114E-03
 cg2d: Sum(rhs),rhsMax =   1.14017036594478E-04  6.88848166569909E-03
 cg2d: Sum(rhs),rhsMax =   1.14051947670882E-04  6.88960354515444E-03
 cg2d: Sum(rhs),rhsMax =   1.14086863079157E-04  6.89072535800767E-03
 cg2d: Sum(rhs),rhsMax =   1.14121773141653E-04  6.89184709340264E-03
 cg2d: Sum(rhs),rhsMax =   1.14156698269982E-04  6.89296876221679E-03
 cg2d: Sum(rhs),rhsMax =   1.14191606422736E-04  6.89409035715921E-03
 cg2d: Sum(rhs),rhsMax =   1.14226502594087E-04  6.89521188635076E-03
 cg2d: Sum(rhs),rhsMax =   1.14261415966101E-04  6.89633334364788E-03
 cg2d: Sum(rhs),rhsMax =   1.14296320253882E-04  6.89745473681709E-03
 cg2d: Sum(rhs),rhsMax =   1.14331203622599E-04  6.89857605575258E-03
 cg2d: Sum(rhs),rhsMax =   1.14366101118074E-04  6.89969731113436E-03
 cg2d: Sum(rhs),rhsMax =   1.14401003237276E-04  6.90081849719775E-03
 cg2d: Sum(rhs),rhsMax =   1.14435873929801E-04  6.90193962141644E-03
 cg2d: Sum(rhs),rhsMax =   1.14470737170888E-04  6.90306067344734E-03
 cg2d: Sum(rhs),rhsMax =   1.14505601399443E-04  6.90418166450874E-03
 cg2d: Sum(rhs),rhsMax =   1.14540480782018E-04  6.90530258711689E-03
 cg2d: Sum(rhs),rhsMax =   1.14570338202111E-04  6.90642345976450E-03
 cg2d: Sum(rhs),rhsMax =   1.14600185710323E-04  6.90754425569716E-03
 cg2d: Sum(rhs),rhsMax =   1.14630033162531E-04  6.90866499035319E-03
 cg2d: Sum(rhs),rhsMax =   1.14659864646947E-04  6.90978566010847E-03
 cg2d: Sum(rhs),rhsMax =   1.14689706470994E-04  6.91090626957048E-03
 cg2d: Sum(rhs),rhsMax =   1.14719517683401E-04  6.91202681592472E-03
 cg2d: Sum(rhs),rhsMax =   1.14749333560566E-04  6.91314730227326E-03
 cg2d: Sum(rhs),rhsMax =   1.14779151331683E-04  6.91426772705850E-03
 cg2d: Sum(rhs),rhsMax =   1.14808960353669E-04  6.91538809237379E-03
 cg2d: Sum(rhs),rhsMax =   1.14838749658096E-04  6.91650839782121E-03
 cg2d: Sum(rhs),rhsMax =   1.14868527099919E-04  6.91762864407431E-03
 cg2d: Sum(rhs),rhsMax =   1.14898292448940E-04  6.91874883269014E-03
 cg2d: Sum(rhs),rhsMax =   1.14928006371792E-04  6.91986896259278E-03
 cg2d: Sum(rhs),rhsMax =   1.14957738065590E-04  6.92098903588585E-03
 cg2d: Sum(rhs),rhsMax =   1.14987484695446E-04  6.92210905235340E-03
 cg2d: Sum(rhs),rhsMax =   1.15017214220425E-04  6.92322901213928E-03
 cg2d: Sum(rhs),rhsMax =   1.15046929797065E-04  6.92434891593848E-03
 cg2d: Sum(rhs),rhsMax =   1.15076643305004E-04  6.92546876479923E-03
 cg2d: Sum(rhs),rhsMax =   1.15106301578742E-04  6.92658855833706E-03
 cg2d: Sum(rhs),rhsMax =   1.15135985260266E-04  6.92770829917519E-03
(PID.TID 0000.0001)      cg2d_init_res =   1.05854130952980E-02
(PID.TID 0000.0001)      cg2d_iters(min,last) =      -1     391
(PID.TID 0000.0001)      cg2d_last_res =   9.65314586508456E-08
(PID.TID 0000.0001) // =======================================================
(PID.TID 0000.0001) // Begin MONITOR dynamic field statistics
(PID.TID 0000.0001) // =======================================================
(PID.TID 0000.0001) %MON time_tsnumber                =                  4608
(PID.TID 0000.0001) %MON time_secondsf                =   5.5296000000000E+06
(PID.TID 0000.0001) %MON dynstat_eta_max              =   7.1425949919616E-02
(PID.TID 0000.0001) %MON dynstat_eta_min              =  -1.4496670799210E-01
(PID.TID 0000.0001) %MON dynstat_eta_mean             =  -3.7973345238015E-09
(PID.TID 0000.0001) %MON dynstat_eta_sd               =   5.8011961250927E-02
(PID.TID 0000.0001) %MON dynstat_eta_del2             =   3.4466913003980E-07
(PID.TID 0000.0001) %MON dynstat_uvel_max             =   5.3241961609361E-02
(PID.TID 0000.0001) %MON dynstat_uvel_min             =  -7.0221858494964E-02
(PID.TID 0000.0001) %MON dynstat_uvel_mean            =  -6.9495882538044E-08
(PID.TID 0000.0001) %MON dynstat_uvel_sd              =   2.3767153166590E-02
(PID.TID 0000.0001) %MON dynstat_uvel_del2            =   6.5002636883764E-07
(PID.TID 0000.0001) %MON dynstat_vvel_max             =   4.8759573559236E-02
(PID.TID 0000.0001) %MON dynstat_vvel_min             =  -4.9047090220363E-02
(PID.TID 0000.0001) %MON dynstat_vvel_mean            =  -2.1439332617509E-07
(PID.TID 0000.0001) %MON dynstat_vvel_sd              =   2.0953759902846E-02
(PID.TID 0000.0001) %MON dynstat_vvel_del2            =   7.9229863677282E-07
(PID.TID 0000.0001) %MON dynstat_wvel_max             =   2.9675011569052E-08
(PID.TID 0000.0001) %MON dynstat_wvel_min             =  -2.2995335742598E-08
(PID.TID 0000.0001) %MON dynstat_wvel_mean            =   5.2991123569708E-21
(PID.TID 0000.0001) %MON dynstat_wvel_sd              =   1.0016733764894E-08
(PID.TID 0000.0001) %MON dynstat_wvel_del2            =   8.1230440253502E-14
(PID.TID 0000.0001) %MON dynstat_theta_max            =   2.0000000000000E+01
(PID.TID 0000.0001) %MON dynstat_theta_min            =   2.0000000000000E+01
(PID.TID 0000.0001) %MON dynstat_theta_mean           =   1.9999999999999E+01
(PID.TID 0000.0001) %MON dynstat_theta_sd             =   1.1972645097557E-12
(PID.TID 0000.0001) %MON dynstat_theta_del2           =   0.0000000000000E+00
(PID.TID 0000.0001) %MON dynstat_salt_max             =   3.0000000000000E+01
(PID.TID 0000.0001) %MON dynstat_salt_min             =   3.0000000000000E+01
(PID.TID 0000.0001) %MON dynstat_salt_mean            =   2.9999999999998E+01
(PID.TID 0000.0001) %MON dynstat_salt_sd              =   2.1529444893531E-12
(PID.TID 0000.0001) %MON dynstat_salt_del2            =   0.0000000000000E+00
(PID.TID 0000.0001) %MON trAdv_CFL_u_max              =   1.6850569955321E-02
(PID.TID 0000.0001) %MON trAdv_CFL_v_max              =   1.1767997646832E-02
(PID.TID 0000.0001) %MON trAdv_CFL_w_max              =   7.4848336993475E-09
(PID.TID 0000.0001) %MON advcfl_uvel_max              =   1.6853246038791E-02
(PID.TID 0000.0001) %MON advcfl_vvel_max              =   1.1771301652887E-02
(PID.TID 0000.0001) %MON advcfl_wvel_max              =   1.4244005553145E-08
(PID.TID 0000.0001) %MON advcfl_W_hf_max              =   0.0000000000000E+00
(PID.TID 0000.0001) %MON pe_b_mean                    =   3.4432525141094E-06
(PID.TID 0000.0001) %MON ke_max                       =   2.4656366135123E-03
(PID.TID 0000.0001) %MON ke_mean                      =   4.9970925922366E-04
(PID.TID 0000.0001) %MON ke_vol                       =   7.2529629296391E+15
(PID.TID 0000.0001) %MON vort_r_min                   =  -2.1847944210752E-06
(PID.TID 0000.0001) %MON vort_r_max                   =   2.0776582318474E-06
(PID.TID 0000.0001) %MON vort_a_mean                  =   1.0615000000000E-04
(PID.TID 0000.0001) %MON vort_a_sd                    =   3.5831714631352E-06
(PID.TID 0000.0001) %MON vort_p_mean                  =   1.1210870169429E-04
(PID.TID 0000.0001) %MON vort_p_sd                    =   2.1056661811788E-05
(PID.TID 0000.0001) %MON surfExpan_theta_mean         =   1.0621850708427E-19
(PID.TID 0000.0001) %MON surfExpan_salt_mean          =   1.5897082197932E-19
(PID.TID 0000.0001) // =======================================================
(PID.TID 0000.0001) // End MONITOR dynamic field statistics
(PID.TID 0000.0001) // =======================================================
 cg2d: Sum(rhs),rhsMax =   1.15165636097300E-04  6.92882798680092E-03
 cg2d: Sum(rhs),rhsMax =   1.15195306476306E-04  6.92994761966801E-03
 cg2d: Sum(rhs),rhsMax =   1.15224946231421E-04  6.93106720010712E-03
 cg2d: Sum(rhs),rhsMax =   1.15254581712971E-04  6.93218672923640E-03
 cg2d: Sum(rhs),rhsMax =   1.15284185441192E-04  6.93330620734420E-03
 cg2d: Sum(rhs),rhsMax =   1.15313806955968E-04  6.93442563343670E-03
 cg2d: Sum(rhs),rhsMax =   1.15343408943498E-04  6.93554501005682E-03
 cg2d: Sum(rhs),rhsMax =   1.15372997081850E-04  6.93666433633733E-03
 cg2d: Sum(rhs),rhsMax =   1.15402582985256E-04  6.93778361415742E-03
 cg2d: Sum(rhs),rhsMax =   1.15432145464321E-04  6.93890284215322E-03
 cg2d: Sum(rhs),rhsMax =   1.15461682906338E-04  6.94002202304398E-03
 cg2d: Sum(rhs),rhsMax =   1.15491208593748E-04  6.94114115500256E-03
 cg2d: Sum(rhs),rhsMax =   1.15520727237136E-04  6.94226024132859E-03
 cg2d: Sum(rhs),rhsMax =   1.15550252419138E-04  6.94337927934208E-03
 cg2d: Sum(rhs),rhsMax =   1.15579730248015E-04  6.94449827335309E-03
 cg2d: Sum(rhs),rhsMax =   1.15609193152505E-04  6.94561721959198E-03
 cg2d: Sum(rhs),rhsMax =   1.15638661793554E-04  6.94673612337706E-03
 cg2d: Sum(rhs),rhsMax =   1.15668067671614E-04  6.94785498128699E-03
 cg2d: Sum(rhs),rhsMax =   1.15697503276642E-04  6.94897379601720E-03
 cg2d: Sum(rhs),rhsMax =   1.15726919821972E-04  6.95009256696748E-03
 cg2d: Sum(rhs),rhsMax =   1.15756321942086E-04  6.95121129505674E-03
 cg2d: Sum(rhs),rhsMax =   1.15785704101291E-04  6.95232998020322E-03
 cg2d: Sum(rhs),rhsMax =   1.15815076127943E-04  6.95344862433723E-03
 cg2d: Sum(rhs),rhsMax =   1.15844434200534E-04  6.95456722559544E-03
 cg2d: Sum(rhs),rhsMax =   1.15873792002047E-04  6.95568578870595E-03
 cg2d: Sum(rhs),rhsMax =   1.15903107031324E-04  6.95680430861097E-03
 cg2d: Sum(rhs),rhsMax =   1.15932394345337E-04  6.95792279352046E-03
 cg2d: Sum(rhs),rhsMax =   1.15961690937502E-04  6.95904123788230E-03
 cg2d: Sum(rhs),rhsMax =   1.15990963277297E-04  6.96015964242447E-03
 cg2d: Sum(rhs),rhsMax =   1.16020214342961E-04  6.96127800861433E-03
 cg2d: Sum(rhs),rhsMax =   1.16049474318581E-04  6.96239633989016E-03
 cg2d: Sum(rhs),rhsMax =   1.16078711105342E-04  6.96351463252302E-03
 cg2d: Sum(rhs),rhsMax =   1.16107954947222E-04  6.96463288943166E-03
 cg2d: Sum(rhs),rhsMax =   1.16137167998179E-04  6.96575110920678E-03
 cg2d: Sum(rhs),rhsMax =   1.16166338745504E-04  6.96686929497710E-03
 cg2d: Sum(rhs),rhsMax =   1.16195529520509E-04  6.96798744506009E-03
 cg2d: Sum(rhs),rhsMax =   1.16224674992239E-04  6.96910556207968E-03
 cg2d: Sum(rhs),rhsMax =   1.16253830508734E-04  6.97022364495011E-03
 cg2d: Sum(rhs),rhsMax =   1.16282949452089E-04  6.97134169523651E-03
 cg2d: Sum(rhs),rhsMax =   1.16312061000618E-04  6.97245971304916E-03
 cg2d: Sum(rhs),rhsMax =   1.16341158097926E-04  6.97357769871219E-03
 cg2d: Sum(rhs),rhsMax =   1.16370234795452E-04  6.97469565349329E-03
 cg2d: Sum(rhs),rhsMax =   1.16399254337134E-04  6.97581357784466E-03
 cg2d: Sum(rhs),rhsMax =   1.16428294092762E-04  6.97693147054111E-03
 cg2d: Sum(rhs),rhsMax =   1.16457302095974E-04  6.97804933467078E-03
 cg2d: Sum(rhs),rhsMax =   1.16486293757912E-04  6.97916716819070E-03
 cg2d: Sum(rhs),rhsMax =   1.16515256045001E-04  6.98028497393111E-03
 cg2d: Sum(rhs),rhsMax =   1.16544253580623E-04  6.98140275011692E-03
 cg2d: Sum(rhs),rhsMax =   1.16573197617557E-04  6.98252049963955E-03
 cg2d: Sum(rhs),rhsMax =   1.16602141077905E-04  6.98363822184235E-03
 cg2d: Sum(rhs),rhsMax =   1.16631038750050E-04  6.98475591837198E-03
 cg2d: Sum(rhs),rhsMax =   1.16659937881418E-04  6.98587358808196E-03
 cg2d: Sum(rhs),rhsMax =   1.16688819010807E-04  6.98699123331009E-03
 cg2d: Sum(rhs),rhsMax =   1.16717675579534E-04  6.98810885264310E-03
 cg2d: Sum(rhs),rhsMax =   1.16746505034557E-04  6.98922644863882E-03
 cg2d: Sum(rhs),rhsMax =   1.16775336202067E-04  6.99034401970251E-03
 cg2d: Sum(rhs),rhsMax =   1.16804126440405E-04  6.99146156833451E-03
 cg2d: Sum(rhs),rhsMax =   1.16832927164902E-04  6.99257909364619E-03
 cg2d: Sum(rhs),rhsMax =   1.16861671439951E-04  6.99369659729916E-03
 cg2d: Sum(rhs),rhsMax =   1.16890414812152E-04  6.99481407860283E-03
 cg2d: Sum(rhs),rhsMax =   1.16919127339887E-04  6.99593153889841E-03
 cg2d: Sum(rhs),rhsMax =   1.16947863552413E-04  6.99704897970761E-03
 cg2d: Sum(rhs),rhsMax =   1.16976533557848E-04  6.99816640162277E-03
 cg2d: Sum(rhs),rhsMax =   1.17005215352221E-04  6.99928380130484E-03
 cg2d: Sum(rhs),rhsMax =   1.17033873441496E-04  7.00040118273449E-03
 cg2d: Sum(rhs),rhsMax =   1.17062508909187E-04  7.00151854578776E-03
 cg2d: Sum(rhs),rhsMax =   1.17091091479571E-04  7.00263589105131E-03
 cg2d: Sum(rhs),rhsMax =   1.17119696125368E-04  7.00375321985436E-03
 cg2d: Sum(rhs),rhsMax =   1.17148261636516E-04  7.00487053174501E-03
 cg2d: Sum(rhs),rhsMax =   1.17176828754528E-04  7.00598782589089E-03
 cg2d: Sum(rhs),rhsMax =   1.17205371523102E-04  7.00710510668525E-03
 cg2d: Sum(rhs),rhsMax =   1.17233903325006E-04  7.00822237010774E-03
(PID.TID 0000.0001)      cg2d_init_res =   1.03689674871421E-02
(PID.TID 0000.0001)      cg2d_iters(min,last) =      -1     391
(PID.TID 0000.0001)      cg2d_last_res =   9.86296313542162E-08
(PID.TID 0000.0001) // =======================================================
(PID.TID 0000.0001) // Begin MONITOR dynamic field statistics
(PID.TID 0000.0001) // =======================================================
(PID.TID 0000.0001) %MON time_tsnumber                =                  4680
(PID.TID 0000.0001) %MON time_secondsf                =   5.6160000000000E+06
(PID.TID 0000.0001) %MON dynstat_eta_max              =   7.1724817817362E-02
(PID.TID 0000.0001) %MON dynstat_eta_min              =  -1.4691741075655E-01
(PID.TID 0000.0001) %MON dynstat_eta_mean             =  -3.9113980975816E-09
(PID.TID 0000.0001) %MON dynstat_eta_sd               =   5.8710269789398E-02
(PID.TID 0000.0001) %MON dynstat_eta_del2             =   3.4770009175504E-07
(PID.TID 0000.0001) %MON dynstat_uvel_max             =   5.3726961311942E-02
(PID.TID 0000.0001) %MON dynstat_uvel_min             =  -7.1016518051398E-02
(PID.TID 0000.0001) %MON dynstat_uvel_mean            =  -6.5762510721360E-08
(PID.TID 0000.0001) %MON dynstat_uvel_sd              =   2.4038650483253E-02
(PID.TID 0000.0001) %MON dynstat_uvel_del2            =   6.5255244584193E-07
(PID.TID 0000.0001) %MON dynstat_vvel_max             =   4.9712080961491E-02
(PID.TID 0000.0001) %MON dynstat_vvel_min             =  -4.9672199120794E-02
(PID.TID 0000.0001) %MON dynstat_vvel_mean            =  -2.0424616505307E-07
(PID.TID 0000.0001) %MON dynstat_vvel_sd              =   2.1193226457985E-02
(PID.TID 0000.0001) %MON dynstat_vvel_del2            =   7.9430356145170E-07
(PID.TID 0000.0001) %MON dynstat_wvel_max             =   2.8699485789984E-08
(PID.TID 0000.0001) %MON dynstat_wvel_min             =  -2.2862912226119E-08
(PID.TID 0000.0001) %MON dynstat_wvel_mean            =  -1.9204734031488E-21
(PID.TID 0000.0001) %MON dynstat_wvel_sd              =   9.9806103713444E-09
(PID.TID 0000.0001) %MON dynstat_wvel_del2            =   8.0429895345169E-14
(PID.TID 0000.0001) %MON dynstat_theta_max            =   2.0000000000000E+01
(PID.TID 0000.0001) %MON dynstat_theta_min            =   2.0000000000000E+01
(PID.TID 0000.0001) %MON dynstat_theta_mean           =   1.9999999999999E+01
(PID.TID 0000.0001) %MON dynstat_theta_sd             =   1.1972645097557E-12
(PID.TID 0000.0001) %MON dynstat_theta_del2           =   0.0000000000000E+00
(PID.TID 0000.0001) %MON dynstat_salt_max             =   3.0000000000000E+01
(PID.TID 0000.0001) %MON dynstat_salt_min             =   3.0000000000000E+01
(PID.TID 0000.0001) %MON dynstat_salt_mean            =   2.9999999999998E+01
(PID.TID 0000.0001) %MON dynstat_salt_sd              =   2.1529444893531E-12
(PID.TID 0000.0001) %MON dynstat_salt_del2            =   0.0000000000000E+00
(PID.TID 0000.0001) %MON trAdv_CFL_u_max              =   1.7041341432718E-02
(PID.TID 0000.0001) %MON trAdv_CFL_v_max              =   1.1927726441542E-02
(PID.TID 0000.0001) %MON trAdv_CFL_w_max              =   7.2322236880178E-09
(PID.TID 0000.0001) %MON advcfl_uvel_max              =   1.7043964332336E-02
(PID.TID 0000.0001) %MON advcfl_vvel_max              =   1.1930899430758E-02
(PID.TID 0000.0001) %MON advcfl_wvel_max              =   1.3775753179193E-08
(PID.TID 0000.0001) %MON advcfl_W_hf_max              =   0.0000000000000E+00
(PID.TID 0000.0001) %MON pe_b_mean                    =   3.5266464956733E-06
(PID.TID 0000.0001) %MON ke_max                       =   2.5217161140476E-03
(PID.TID 0000.0001) %MON ke_mean                      =   5.1119330195031E-04
(PID.TID 0000.0001) %MON ke_vol                       =   7.2529629296391E+15
(PID.TID 0000.0001) %MON vort_r_min                   =  -2.2106011884170E-06
(PID.TID 0000.0001) %MON vort_r_max                   =   2.0560326104251E-06
(PID.TID 0000.0001) %MON vort_a_mean                  =   1.0615000000000E-04
(PID.TID 0000.0001) %MON vort_a_sd                    =   3.5834583054314E-06
(PID.TID 0000.0001) %MON vort_p_mean                  =   1.1210870169429E-04
(PID.TID 0000.0001) %MON vort_p_sd                    =   2.1056723117056E-05
(PID.TID 0000.0001) %MON surfExpan_theta_mean         =  -3.8481818549856E-20
(PID.TID 0000.0001) %MON surfExpan_salt_mean          =  -5.7726691722391E-20
(PID.TID 0000.0001) // =======================================================
(PID.TID 0000.0001) // End MONITOR dynamic field statistics
(PID.TID 0000.0001) // =======================================================
 cg2d: Sum(rhs),rhsMax =   1.17262406883895E-04  7.00933962215755E-03
 cg2d: Sum(rhs),rhsMax =   1.17290879745899E-04  7.01045685754772E-03
 cg2d: Sum(rhs),rhsMax =   1.17319364211652E-04  7.01157408157890E-03
 cg2d: Sum(rhs),rhsMax =   1.17347793708958E-04  7.01269129042868E-03
 cg2d: Sum(rhs),rhsMax =   1.17376217390822E-04  7.01380848918538E-03
 cg2d: Sum(rhs),rhsMax =   1.17404603284000E-04  7.01492567408704E-03
 cg2d: Sum(rhs),rhsMax =   1.17432998376893E-04  7.01604284870207E-03
 cg2d: Sum(rhs),rhsMax =   1.17461373038703E-04  7.01716001080286E-03
 cg2d: Sum(rhs),rhsMax =   1.17489730208339E-04  7.01827716474334E-03
 cg2d: Sum(rhs),rhsMax =   1.17518041489449E-04  7.01939430706788E-03
 cg2d: Sum(rhs),rhsMax =   1.17546365314638E-04  7.02051144249735E-03
 cg2d: Sum(rhs),rhsMax =   1.17574646975135E-04  7.02162856730746E-03
 cg2d: Sum(rhs),rhsMax =   1.17602922116779E-04  7.02274568640061E-03
 cg2d: Sum(rhs),rhsMax =   1.17631183367469E-04  7.02386279587623E-03
 cg2d: Sum(rhs),rhsMax =   1.17659395002765E-04  7.02497990057229E-03
 cg2d: Sum(rhs),rhsMax =   1.17687589686426E-04  7.02609699675143E-03
 cg2d: Sum(rhs),rhsMax =   1.17715785562570E-04  7.02721408938117E-03
 cg2d: Sum(rhs),rhsMax =   1.17743943364135E-04  7.02833117555748E-03
 cg2d: Sum(rhs),rhsMax =   1.17772055770781E-04  7.02944825734492E-03
 cg2d: Sum(rhs),rhsMax =   1.17800169934558E-04  7.03056533377838E-03
 cg2d: Sum(rhs),rhsMax =   1.17828277825631E-04  7.03168240757837E-03
 cg2d: Sum(rhs),rhsMax =   1.17856373365400E-04  7.03279947699026E-03
 cg2d: Sum(rhs),rhsMax =   1.17884449069062E-04  7.03391654479933E-03
 cg2d: Sum(rhs),rhsMax =   1.17912480209875E-04  7.03503360941567E-03
 cg2d: Sum(rhs),rhsMax =   1.17940521096759E-04  7.03615067358131E-03
 cg2d: Sum(rhs),rhsMax =   1.17968522923373E-04  7.03726773638672E-03
 cg2d: Sum(rhs),rhsMax =   1.17996504226461E-04  7.03838479903674E-03
 cg2d: Sum(rhs),rhsMax =   1.18024454826458E-04  7.03950186218096E-03
 cg2d: Sum(rhs),rhsMax =   1.18052371744197E-04  7.04061892577932E-03
 cg2d: Sum(rhs),rhsMax =   1.18080300399023E-04  7.04173599058164E-03
 cg2d: Sum(rhs),rhsMax =   1.18108158549557E-04  7.04285305735722E-03
 cg2d: Sum(rhs),rhsMax =   1.18136016645489E-04  7.04397012618843E-03
 cg2d: Sum(rhs),rhsMax =   1.18163863811008E-04  7.04508719968662E-03
 cg2d: Sum(rhs),rhsMax =   1.18191710717887E-04  7.04620427367052E-03
 cg2d: Sum(rhs),rhsMax =   1.18219511544789E-04  7.04732135327791E-03
 cg2d: Sum(rhs),rhsMax =   1.18247322386137E-04  7.04843843527746E-03
 cg2d: Sum(rhs),rhsMax =   1.18275083000079E-04  7.04955552457302E-03
 cg2d: Sum(rhs),rhsMax =   1.18302843613965E-04  7.05067261713931E-03
 cg2d: Sum(rhs),rhsMax =   1.18330577347679E-04  7.05178971873084E-03
 cg2d: Sum(rhs),rhsMax =   1.18358279130225E-04  7.05290682411633E-03
 cg2d: Sum(rhs),rhsMax =   1.18385954573935E-04  7.05402393998512E-03
 cg2d: Sum(rhs),rhsMax =   1.18413597391955E-04  7.05514106138605E-03
 cg2d: Sum(rhs),rhsMax =   1.18441231004624E-04  7.05625819182595E-03
 cg2d: Sum(rhs),rhsMax =   1.18468839742551E-04  7.05737532893985E-03
 cg2d: Sum(rhs),rhsMax =   1.18496414995542E-04  7.05849247821881E-03
 cg2d: Sum(rhs),rhsMax =   1.18523967826646E-04  7.05960963563376E-03
 cg2d: Sum(rhs),rhsMax =   1.18551529907881E-04  7.06072680526270E-03
 cg2d: Sum(rhs),rhsMax =   1.18579060786133E-04  7.06184398354435E-03
 cg2d: Sum(rhs),rhsMax =   1.18606595225381E-04  7.06296117516556E-03
 cg2d: Sum(rhs),rhsMax =   1.18634075787950E-04  7.06407837720696E-03
 cg2d: Sum(rhs),rhsMax =   1.18661539352486E-04  7.06519559464562E-03
 cg2d: Sum(rhs),rhsMax =   1.18688981291999E-04  7.06631282358650E-03
 cg2d: Sum(rhs),rhsMax =   1.18716402593198E-04  7.06743006696172E-03
 cg2d: Sum(rhs),rhsMax =   1.18743766456934E-04  7.06854732333676E-03
 cg2d: Sum(rhs),rhsMax =   1.18771132502694E-04  7.06966459588584E-03
 cg2d: Sum(rhs),rhsMax =   1.18798460119851E-04  7.07078188281776E-03
 cg2d: Sum(rhs),rhsMax =   1.18825777560763E-04  7.07189918502491E-03
 cg2d: Sum(rhs),rhsMax =   1.18853057683159E-04  7.07301650272050E-03
 cg2d: Sum(rhs),rhsMax =   1.18880341157422E-04  7.07413383943067E-03
 cg2d: Sum(rhs),rhsMax =   1.18907592806898E-04  7.07525119280582E-03
 cg2d: Sum(rhs),rhsMax =   1.18934832885884E-04  7.07636856486102E-03
 cg2d: Sum(rhs),rhsMax =   1.18962032016997E-04  7.07748595479709E-03
 cg2d: Sum(rhs),rhsMax =   1.18989229848254E-04  7.07860336412630E-03
 cg2d: Sum(rhs),rhsMax =   1.19016409784702E-04  7.07972079340298E-03
 cg2d: Sum(rhs),rhsMax =   1.19043532772224E-04  7.08083824260374E-03
 cg2d: Sum(rhs),rhsMax =   1.19070658809773E-04  7.08195571279813E-03
 cg2d: Sum(rhs),rhsMax =   1.19097704361277E-04  7.08307320482588E-03
 cg2d: Sum(rhs),rhsMax =   1.19124759811172E-04  7.08419071734140E-03
 cg2d: Sum(rhs),rhsMax =   1.19151786968942E-04  7.08530825481334E-03
 cg2d: Sum(rhs),rhsMax =   1.19178805318051E-04  7.08642581125628E-03
 cg2d: Sum(rhs),rhsMax =   1.19205771933720E-04  7.08754339330291E-03
 cg2d: Sum(rhs),rhsMax =   1.19232751129884E-04  7.08866099720969E-03
(PID.TID 0000.0001)      cg2d_init_res =   1.01707093636020E-02
(PID.TID 0000.0001)      cg2d_iters(min,last) =      -1     391
(PID.TID 0000.0001)      cg2d_last_res =   9.94335852462136E-08
(PID.TID 0000.0001) // =======================================================
(PID.TID 0000.0001) // Begin MONITOR dynamic field statistics
(PID.TID 0000.0001) // =======================================================
(PID.TID 0000.0001) %MON time_tsnumber                =                  4752
(PID.TID 0000.0001) %MON time_secondsf                =   5.7024000000000E+06
(PID.TID 0000.0001) %MON dynstat_eta_max              =   7.2607777442777E-02
(PID.TID 0000.0001) %MON dynstat_eta_min              =  -1.4885356847706E-01
(PID.TID 0000.0001) %MON dynstat_eta_mean             =  -4.0236710480249E-09
(PID.TID 0000.0001) %MON dynstat_eta_sd               =   5.9406588164368E-02
(PID.TID 0000.0001) %MON dynstat_eta_del2             =   3.5069331284670E-07
(PID.TID 0000.0001) %MON dynstat_uvel_max             =   5.4108473789835E-02
(PID.TID 0000.0001) %MON dynstat_uvel_min             =  -7.1795703543721E-02
(PID.TID 0000.0001) %MON dynstat_uvel_mean            =  -5.6446337002153E-08
(PID.TID 0000.0001) %MON dynstat_uvel_sd              =   2.4297880609448E-02
(PID.TID 0000.0001) %MON dynstat_uvel_del2            =   6.5464942917015E-07
(PID.TID 0000.0001) %MON dynstat_vvel_max             =   5.0672858307967E-02
(PID.TID 0000.0001) %MON dynstat_vvel_min             =  -5.0271216340232E-02
(PID.TID 0000.0001) %MON dynstat_vvel_mean            =  -1.9488145363658E-07
(PID.TID 0000.0001) %MON dynstat_vvel_sd              =   2.1442712041097E-02
(PID.TID 0000.0001) %MON dynstat_vvel_del2            =   7.9741703262943E-07
(PID.TID 0000.0001) %MON dynstat_wvel_max             =   2.7576615118596E-08
(PID.TID 0000.0001) %MON dynstat_wvel_min             =  -2.2702813479118E-08
(PID.TID 0000.0001) %MON dynstat_wvel_mean            =  -8.4969969336613E-22
(PID.TID 0000.0001) %MON dynstat_wvel_sd              =   9.9323114293516E-09
(PID.TID 0000.0001) %MON dynstat_wvel_del2            =   7.9707748092523E-14
(PID.TID 0000.0001) %MON dynstat_theta_max            =   2.0000000000000E+01
(PID.TID 0000.0001) %MON dynstat_theta_min            =   2.0000000000000E+01
(PID.TID 0000.0001) %MON dynstat_theta_mean           =   1.9999999999999E+01
(PID.TID 0000.0001) %MON dynstat_theta_sd             =   1.1972645097557E-12
(PID.TID 0000.0001) %MON dynstat_theta_del2           =   0.0000000000000E+00
(PID.TID 0000.0001) %MON dynstat_salt_max             =   3.0000000000000E+01
(PID.TID 0000.0001) %MON dynstat_salt_min             =   3.0000000000000E+01
(PID.TID 0000.0001) %MON dynstat_salt_mean            =   2.9999999999998E+01
(PID.TID 0000.0001) %MON dynstat_salt_sd              =   2.1529444893531E-12
(PID.TID 0000.0001) %MON dynstat_salt_del2            =   0.0000000000000E+00
(PID.TID 0000.0001) %MON trAdv_CFL_u_max              =   1.7228395935872E-02
(PID.TID 0000.0001) %MON trAdv_CFL_v_max              =   1.2158285288056E-02
(PID.TID 0000.0001) %MON trAdv_CFL_w_max              =   6.9419843575682E-09
(PID.TID 0000.0001) %MON advcfl_uvel_max              =   1.7230968850493E-02
(PID.TID 0000.0001) %MON advcfl_vvel_max              =   1.2161485993912E-02
(PID.TID 0000.0001) %MON advcfl_wvel_max              =   1.3236775256926E-08
(PID.TID 0000.0001) %MON advcfl_W_hf_max              =   0.0000000000000E+00
(PID.TID 0000.0001) %MON pe_b_mean                    =   3.6107963790369E-06
(PID.TID 0000.0001) %MON ke_max                       =   2.5773188534131E-03
(PID.TID 0000.0001) %MON ke_mean                      =   5.2272482796396E-04
(PID.TID 0000.0001) %MON ke_vol                       =   7.2529629296391E+15
(PID.TID 0000.0001) %MON vort_r_min                   =  -2.2363264319503E-06
(PID.TID 0000.0001) %MON vort_r_max                   =   2.0390751835088E-06
(PID.TID 0000.0001) %MON vort_a_mean                  =   1.0615000000000E-04
(PID.TID 0000.0001) %MON vort_a_sd                    =   3.5837436424446E-06
(PID.TID 0000.0001) %MON vort_p_mean                  =   1.1210870169429E-04
(PID.TID 0000.0001) %MON vort_p_sd                    =   2.1056793792192E-05
(PID.TID 0000.0001) %MON surfExpan_theta_mean         =  -1.7309232461872E-20
(PID.TID 0000.0001) %MON surfExpan_salt_mean          =  -2.6083798864474E-20
(PID.TID 0000.0001) // =======================================================
(PID.TID 0000.0001) // End MONITOR dynamic field statistics
(PID.TID 0000.0001) // =======================================================
 cg2d: Sum(rhs),rhsMax =   1.19259682421623E-04  7.08977862608230E-03
 cg2d: Sum(rhs),rhsMax =   1.19286596570866E-04  7.09089628066194E-03
 cg2d: Sum(rhs),rhsMax =   1.19313481179259E-04  7.09201396052464E-03
 cg2d: Sum(rhs),rhsMax =   1.19340361114807E-04  7.09313166760428E-03
 cg2d: Sum(rhs),rhsMax =   1.19367191997763E-04  7.09424940145800E-03
 cg2d: Sum(rhs),rhsMax =   1.19394011691184E-04  7.09536716056177E-03
 cg2d: Sum(rhs),rhsMax =   1.19420802907493E-04  7.09648494965354E-03
 cg2d: Sum(rhs),rhsMax =   1.19447580521666E-04  7.09760276565966E-03
 cg2d: Sum(rhs),rhsMax =   1.19474344695121E-04  7.09872061216307E-03
 cg2d: Sum(rhs),rhsMax =   1.19501031970467E-04  7.09983848575821E-03
 cg2d: Sum(rhs),rhsMax =   1.19527737629167E-04  7.10095639105325E-03
 cg2d: Sum(rhs),rhsMax =   1.19554381736413E-04  7.10207432444430E-03
 cg2d: Sum(rhs),rhsMax =   1.19581039100792E-04  7.10319229128475E-03
 cg2d: Sum(rhs),rhsMax =   1.19607636989506E-04  7.10431028699366E-03
 cg2d: Sum(rhs),rhsMax =   1.19634214121704E-04  7.10542831709561E-03
 cg2d: Sum(rhs),rhsMax =   1.19660768425765E-04  7.10654637722002E-03
 cg2d: Sum(rhs),rhsMax =   1.19687303292880E-04  7.10766447290058E-03
 cg2d: Sum(rhs),rhsMax =   1.19713826342448E-04  7.10878260098015E-03
 cg2d: Sum(rhs),rhsMax =   1.19740294373608E-04  7.10990076299510E-03
 cg2d: Sum(rhs),rhsMax =   1.19766759826810E-04  7.11101895867864E-03
 cg2d: Sum(rhs),rhsMax =   1.19793206909099E-04  7.11213719046923E-03
 cg2d: Sum(rhs),rhsMax =   1.19819601480445E-04  7.11325545804872E-03
 cg2d: Sum(rhs),rhsMax =   1.19845977376081E-04  7.11437376244925E-03
 cg2d: Sum(rhs),rhsMax =   1.19872350147118E-04  7.11549210376728E-03
 cg2d: Sum(rhs),rhsMax =   1.19898675453130E-04  7.11661048243616E-03
 cg2d: Sum(rhs),rhsMax =   1.19924981845590E-04  7.11772889875151E-03
 cg2d: Sum(rhs),rhsMax =   1.19951247825359E-04  7.11884735399378E-03
 cg2d: Sum(rhs),rhsMax =   1.19977478210854E-04  7.11996584648161E-03
 cg2d: Sum(rhs),rhsMax =   1.20003667411404E-04  7.12108437706795E-03
 cg2d: Sum(rhs),rhsMax =   1.20029857448798E-04  7.12220295010708E-03
 cg2d: Sum(rhs),rhsMax =   1.20055988919130E-04  7.12332156323510E-03
 cg2d: Sum(rhs),rhsMax =   1.20082119687446E-04  7.12444021765271E-03
 cg2d: Sum(rhs),rhsMax =   1.20108217140961E-04  7.12555891368489E-03
 cg2d: Sum(rhs),rhsMax =   1.20134289509785E-04  7.12667765165844E-03
 cg2d: Sum(rhs),rhsMax =   1.20160332329643E-04  7.12779643345020E-03
 cg2d: Sum(rhs),rhsMax =   1.20186349888094E-04  7.12891525659190E-03
 cg2d: Sum(rhs),rhsMax =   1.20212361236554E-04  7.13003412500177E-03
 cg2d: Sum(rhs),rhsMax =   1.20238308334416E-04  7.13115303586933E-03
 cg2d: Sum(rhs),rhsMax =   1.20264248283678E-04  7.13227199309088E-03
 cg2d: Sum(rhs),rhsMax =   1.20290154470482E-04  7.13339099376742E-03
 cg2d: Sum(rhs),rhsMax =   1.20316019050601E-04  7.13451004179316E-03
 cg2d: Sum(rhs),rhsMax =   1.20341880353482E-04  7.13562913453567E-03
 cg2d: Sum(rhs),rhsMax =   1.20367685836634E-04  7.13674827553317E-03
 cg2d: Sum(rhs),rhsMax =   1.20393488779786E-04  7.13786746266994E-03
 cg2d: Sum(rhs),rhsMax =   1.20419233500435E-04  7.13898669887221E-03
 cg2d: Sum(rhs),rhsMax =   1.20444973705299E-04  7.14010598261139E-03
 cg2d: Sum(rhs),rhsMax =   1.20470673489536E-04  7.14122531614042E-03
 cg2d: Sum(rhs),rhsMax =   1.20496316581565E-04  7.14234469857995E-03
 cg2d: Sum(rhs),rhsMax =   1.20521938946464E-04  7.14346413147182E-03
 cg2d: Sum(rhs),rhsMax =   1.20547557998132E-04  7.14458361465956E-03
 cg2d: Sum(rhs),rhsMax =   1.20573098181731E-04  7.14570314923048E-03
 cg2d: Sum(rhs),rhsMax =   1.20598640877701E-04  7.14682273494611E-03
 cg2d: Sum(rhs),rhsMax =   1.20624123910095E-04  7.14794237464201E-03
 cg2d: Sum(rhs),rhsMax =   1.20649606727614E-04  7.14906206407433E-03
 cg2d: Sum(rhs),rhsMax =   1.20675037356510E-04  7.15018180917926E-03
 cg2d: Sum(rhs),rhsMax =   1.20700467640968E-04  7.15130160507385E-03
 cg2d: Sum(rhs),rhsMax =   1.20725841752887E-04  7.15242145675394E-03
 cg2d: Sum(rhs),rhsMax =   1.20751209273447E-04  7.15354136189644E-03
 cg2d: Sum(rhs),rhsMax =   1.20776524307334E-04  7.15466132388873E-03
 cg2d: Sum(rhs),rhsMax =   1.20801802593210E-04  7.15578133995353E-03
 cg2d: Sum(rhs),rhsMax =   1.20827054873085E-04  7.15690141449851E-03
 cg2d: Sum(rhs),rhsMax =   1.20852279091385E-04  7.15802154333620E-03
 cg2d: Sum(rhs),rhsMax =   1.20877473139326E-04  7.15914173275529E-03
 cg2d: Sum(rhs),rhsMax =   1.20902609519601E-04  7.16026197732456E-03
 cg2d: Sum(rhs),rhsMax =   1.20927733613474E-04  7.16138228240474E-03
 cg2d: Sum(rhs),rhsMax =   1.20952807138312E-04  7.16250264457097E-03
 cg2d: Sum(rhs),rhsMax =   1.20977860324219E-04  7.16362306756943E-03
 cg2d: Sum(rhs),rhsMax =   1.21002875781698E-04  7.16474354949995E-03
 cg2d: Sum(rhs),rhsMax =   1.21027865052087E-04  7.16586409187074E-03
 cg2d: Sum(rhs),rhsMax =   1.21052823128829E-04  7.16698469394684E-03
 cg2d: Sum(rhs),rhsMax =   1.21077734215115E-04  7.16810535858990E-03
 cg2d: Sum(rhs),rhsMax =   1.21102617754698E-04  7.16922608431531E-03
(PID.TID 0000.0001)      cg2d_init_res =   9.98726569684759E-03
(PID.TID 0000.0001)      cg2d_iters(min,last) =      -1     391
(PID.TID 0000.0001)      cg2d_last_res =   9.92953623790081E-08
(PID.TID 0000.0001) // =======================================================
(PID.TID 0000.0001) // Begin MONITOR dynamic field statistics
(PID.TID 0000.0001) // =======================================================
(PID.TID 0000.0001) %MON time_tsnumber                =                  4824
(PID.TID 0000.0001) %MON time_secondsf                =   5.7888000000000E+06
(PID.TID 0000.0001) %MON dynstat_eta_max              =   7.3386672728594E-02
(PID.TID 0000.0001) %MON dynstat_eta_min              =  -1.5077285117346E-01
(PID.TID 0000.0001) %MON dynstat_eta_mean             =  -4.1331297768938E-09
(PID.TID 0000.0001) %MON dynstat_eta_sd               =   6.0099652743016E-02
(PID.TID 0000.0001) %MON dynstat_eta_del2             =   3.5366152837151E-07
(PID.TID 0000.0001) %MON dynstat_uvel_max             =   5.4391731791742E-02
(PID.TID 0000.0001) %MON dynstat_uvel_min             =  -7.2560402726702E-02
(PID.TID 0000.0001) %MON dynstat_uvel_mean            =  -4.2038581190521E-08
(PID.TID 0000.0001) %MON dynstat_uvel_sd              =   2.4545502585852E-02
(PID.TID 0000.0001) %MON dynstat_uvel_del2            =   6.5641493754116E-07
(PID.TID 0000.0001) %MON dynstat_vvel_max             =   5.1630308430330E-02
(PID.TID 0000.0001) %MON dynstat_vvel_min             =  -5.0835738267640E-02
(PID.TID 0000.0001) %MON dynstat_vvel_mean            =  -1.8705396388424E-07
(PID.TID 0000.0001) %MON dynstat_vvel_sd              =   2.1701436056657E-02
(PID.TID 0000.0001) %MON dynstat_vvel_del2            =   8.0158805604464E-07
(PID.TID 0000.0001) %MON dynstat_wvel_max             =   2.6347372044402E-08
(PID.TID 0000.0001) %MON dynstat_wvel_min             =  -2.2509338874370E-08
(PID.TID 0000.0001) %MON dynstat_wvel_mean            =  -1.4191582132319E-21
(PID.TID 0000.0001) %MON dynstat_wvel_sd              =   9.8721042736053E-09
(PID.TID 0000.0001) %MON dynstat_wvel_del2            =   7.9072375131448E-14
(PID.TID 0000.0001) %MON dynstat_theta_max            =   2.0000000000000E+01
(PID.TID 0000.0001) %MON dynstat_theta_min            =   2.0000000000000E+01
(PID.TID 0000.0001) %MON dynstat_theta_mean           =   1.9999999999999E+01
(PID.TID 0000.0001) %MON dynstat_theta_sd             =   1.1972645097557E-12
(PID.TID 0000.0001) %MON dynstat_theta_del2           =   0.0000000000000E+00
(PID.TID 0000.0001) %MON dynstat_salt_max             =   3.0000000000000E+01
(PID.TID 0000.0001) %MON dynstat_salt_min             =   3.0000000000000E+01
(PID.TID 0000.0001) %MON dynstat_salt_mean            =   2.9999999999998E+01
(PID.TID 0000.0001) %MON dynstat_salt_sd              =   2.1529444893531E-12
(PID.TID 0000.0001) %MON dynstat_salt_del2            =   0.0000000000000E+00
(PID.TID 0000.0001) %MON trAdv_CFL_u_max              =   1.7411970357033E-02
(PID.TID 0000.0001) %MON trAdv_CFL_v_max              =   1.2388091621267E-02
(PID.TID 0000.0001) %MON trAdv_CFL_w_max              =   6.6266355000830E-09
(PID.TID 0000.0001) %MON advcfl_uvel_max              =   1.7414496654408E-02
(PID.TID 0000.0001) %MON advcfl_vvel_max              =   1.2391274023279E-02
(PID.TID 0000.0001) %MON advcfl_wvel_max              =   1.2646738581313E-08
(PID.TID 0000.0001) %MON advcfl_W_hf_max              =   0.0000000000000E+00
(PID.TID 0000.0001) %MON pe_b_mean                    =   3.6955382534540E-06
(PID.TID 0000.0001) %MON ke_max                       =   2.6325929916148E-03
(PID.TID 0000.0001) %MON ke_mean                      =   5.3430104454491E-04
(PID.TID 0000.0001) %MON ke_vol                       =   7.2529629296391E+15
(PID.TID 0000.0001) %MON vort_r_min                   =  -2.2620370060813E-06
(PID.TID 0000.0001) %MON vort_r_max                   =   2.0279498813743E-06
(PID.TID 0000.0001) %MON vort_a_mean                  =   1.0615000000000E-04
(PID.TID 0000.0001) %MON vort_a_sd                    =   3.5840289710133E-06
(PID.TID 0000.0001) %MON vort_p_mean                  =   1.1210870169429E-04
(PID.TID 0000.0001) %MON vort_p_sd                    =   2.1056872781694E-05
(PID.TID 0000.0001) %MON surfExpan_theta_mean         =  -2.8395352329253E-20
(PID.TID 0000.0001) %MON surfExpan_salt_mean          =  -4.2627613970158E-20
(PID.TID 0000.0001) // =======================================================
(PID.TID 0000.0001) // End MONITOR dynamic field statistics
(PID.TID 0000.0001) // =======================================================
 cg2d: Sum(rhs),rhsMax =   1.21127493812130E-04  7.17034687396237E-03
 cg2d: Sum(rhs),rhsMax =   1.21152300284869E-04  7.17146772582258E-03
 cg2d: Sum(rhs),rhsMax =   1.21177098752143E-04  7.17258864220273E-03
 cg2d: Sum(rhs),rhsMax =   1.21201850360715E-04  7.17370962176366E-03
 cg2d: Sum(rhs),rhsMax =   1.21226553270660E-04  7.17483066658109E-03
 cg2d: Sum(rhs),rhsMax =   1.21251242229187E-04  7.17595177561744E-03
 cg2d: Sum(rhs),rhsMax =   1.21275894850531E-04  7.17707295074565E-03
 cg2d: Sum(rhs),rhsMax =   1.21300510135080E-04  7.17819419144999E-03
 cg2d: Sum(rhs),rhsMax =   1.21325061383203E-04  7.17931549883696E-03
 cg2d: Sum(rhs),rhsMax =   1.21349608982948E-04  7.18043687358895E-03
 cg2d: Sum(rhs),rhsMax =   1.21374047922995E-04  7.18155831588320E-03
 cg2d: Sum(rhs),rhsMax =   1.21398504842179E-04  7.18267982577993E-03
 cg2d: Sum(rhs),rhsMax =   1.21422942319038E-04  7.18380140591587E-03
 cg2d: Sum(rhs),rhsMax =   1.21447328800780E-04  7.18492305345331E-03
 cg2d: Sum(rhs),rhsMax =   1.21471672024855E-04  7.18604477223085E-03
 cg2d: Sum(rhs),rhsMax =   1.21495987756192E-04  7.18716655918765E-03
 cg2d: Sum(rhs),rhsMax =   1.21520253618277E-04  7.18828841710108E-03
 cg2d: Sum(rhs),rhsMax =   1.21544501779585E-04  7.18941034753561E-03
 cg2d: Sum(rhs),rhsMax =   1.21568687228556E-04  7.19053234989967E-03
 cg2d: Sum(rhs),rhsMax =   1.21592869442374E-04  7.19165442286690E-03
 cg2d: Sum(rhs),rhsMax =   1.21616985277133E-04  7.19277656929014E-03
 cg2d: Sum(rhs),rhsMax =   1.21641076756582E-04  7.19389878904916E-03
 cg2d: Sum(rhs),rhsMax =   1.21665143424851E-04  7.19502108360924E-03
 cg2d: Sum(rhs),rhsMax =   1.21689154928281E-04  7.19614345060359E-03
 cg2d: Sum(rhs),rhsMax =   1.21713131025702E-04  7.19726589364951E-03
 cg2d: Sum(rhs),rhsMax =   1.21737068346012E-04  7.19838841065921E-03
 cg2d: Sum(rhs),rhsMax =   1.21760958107650E-04  7.19951100463304E-03
 cg2d: Sum(rhs),rhsMax =   1.21784835060053E-04  7.20063367365490E-03
 cg2d: Sum(rhs),rhsMax =   1.21808644235478E-04  7.20175642038429E-03
 cg2d: Sum(rhs),rhsMax =   1.21832435172117E-04  7.20287924356695E-03
 cg2d: Sum(rhs),rhsMax =   1.21856162798713E-04  7.20400214487852E-03
 cg2d: Sum(rhs),rhsMax =   1.21879879838185E-04  7.20512512444488E-03
 cg2d: Sum(rhs),rhsMax =   1.21903522283786E-04  7.20624818282293E-03
 cg2d: Sum(rhs),rhsMax =   1.21927121789150E-04  7.20737132024044E-03
 cg2d: Sum(rhs),rhsMax =   1.21950677846286E-04  7.20849453929424E-03
 cg2d: Sum(rhs),rhsMax =   1.21974236755661E-04  7.20961783635369E-03
 cg2d: Sum(rhs),rhsMax =   1.21997743867565E-04  7.21074121613243E-03
 cg2d: Sum(rhs),rhsMax =   1.22021203491131E-04  7.21186467429338E-03
 cg2d: Sum(rhs),rhsMax =   1.22044608642023E-04  7.21298821565838E-03
 cg2d: Sum(rhs),rhsMax =   1.22068018788488E-04  7.21411183815616E-03
 cg2d: Sum(rhs),rhsMax =   1.22091327982928E-04  7.21523554479216E-03
 cg2d: Sum(rhs),rhsMax =   1.22114642711959E-04  7.21635933344309E-03
 cg2d: Sum(rhs),rhsMax =   1.22137881661989E-04  7.21748320736769E-03
 cg2d: Sum(rhs),rhsMax =   1.22161094297546E-04  7.21860716398080E-03
 cg2d: Sum(rhs),rhsMax =   1.22184283235016E-04  7.21973120721806E-03
 cg2d: Sum(rhs),rhsMax =   1.22207413407552E-04  7.22085533357421E-03
 cg2d: Sum(rhs),rhsMax =   1.22230514347671E-04  7.22197954806797E-03
 cg2d: Sum(rhs),rhsMax =   1.22253538075415E-04  7.22310384625748E-03
 cg2d: Sum(rhs),rhsMax =   1.22276531252230E-04  7.22422823380023E-03
 cg2d: Sum(rhs),rhsMax =   1.22299481262897E-04  7.22535270736629E-03
 cg2d: Sum(rhs),rhsMax =   1.22322398859298E-04  7.22647726795359E-03
 cg2d: Sum(rhs),rhsMax =   1.22345282622440E-04  7.22760191613461E-03
 cg2d: Sum(rhs),rhsMax =   1.22368103238377E-04  7.22872665408750E-03
 cg2d: Sum(rhs),rhsMax =   1.22390883139143E-04  7.22985147918551E-03
 cg2d: Sum(rhs),rhsMax =   1.22413628190544E-04  7.23097639625260E-03
 cg2d: Sum(rhs),rhsMax =   1.22436316068761E-04  7.23210140153620E-03
 cg2d: Sum(rhs),rhsMax =   1.22458993562990E-04  7.23322650001055E-03
 cg2d: Sum(rhs),rhsMax =   1.22481595828984E-04  7.23435168815135E-03
 cg2d: Sum(rhs),rhsMax =   1.22504162827750E-04  7.23547696857476E-03
 cg2d: Sum(rhs),rhsMax =   1.22526676791487E-04  7.23660234010058E-03
 cg2d: Sum(rhs),rhsMax =   1.22549168461354E-04  7.23772780485230E-03
 cg2d: Sum(rhs),rhsMax =   1.22571584095369E-04  7.23885336177258E-03
 cg2d: Sum(rhs),rhsMax =   1.22593978188422E-04  7.23997901278143E-03
 cg2d: Sum(rhs),rhsMax =   1.22616295922553E-04  7.24110475554420E-03
 cg2d: Sum(rhs),rhsMax =   1.22638588476446E-04  7.24223059617657E-03
 cg2d: Sum(rhs),rhsMax =   1.22660840392685E-04  7.24335653048812E-03
 cg2d: Sum(rhs),rhsMax =   1.22683051205409E-04  7.24448256030609E-03
 cg2d: Sum(rhs),rhsMax =   1.22705205058134E-04  7.24560868506527E-03
 cg2d: Sum(rhs),rhsMax =   1.22727312113678E-04  7.24673490842241E-03
 cg2d: Sum(rhs),rhsMax =   1.22749391859790E-04  7.24786122740143E-03
 cg2d: Sum(rhs),rhsMax =   1.22771408596358E-04  7.24898764403829E-03
 cg2d: Sum(rhs),rhsMax =   1.22793375960837E-04  7.25011415778356E-03
(PID.TID 0000.0001)      cg2d_init_res =   9.81414840359018E-03
(PID.TID 0000.0001)      cg2d_iters(min,last) =      -1     391
(PID.TID 0000.0001)      cg2d_last_res =   9.78975697340432E-08
(PID.TID 0000.0001) // =======================================================
(PID.TID 0000.0001) // Begin MONITOR dynamic field statistics
(PID.TID 0000.0001) // =======================================================
(PID.TID 0000.0001) %MON time_tsnumber                =                  4896
(PID.TID 0000.0001) %MON time_secondsf                =   5.8752000000000E+06
(PID.TID 0000.0001) %MON dynstat_eta_max              =   7.4065347289990E-02
(PID.TID 0000.0001) %MON dynstat_eta_min              =  -1.5267349627971E-01
(PID.TID 0000.0001) %MON dynstat_eta_mean             =  -4.2380003978569E-09
(PID.TID 0000.0001) %MON dynstat_eta_sd               =   6.0788283136108E-02
(PID.TID 0000.0001) %MON dynstat_eta_del2             =   3.5661749331803E-07
(PID.TID 0000.0001) %MON dynstat_uvel_max             =   5.4592873514029E-02
(PID.TID 0000.0001) %MON dynstat_uvel_min             =  -7.3325444360642E-02
(PID.TID 0000.0001) %MON dynstat_uvel_mean            =  -2.3327863684154E-08
(PID.TID 0000.0001) %MON dynstat_uvel_sd              =   2.4782680790495E-02
(PID.TID 0000.0001) %MON dynstat_uvel_del2            =   6.5795964690892E-07
(PID.TID 0000.0001) %MON dynstat_vvel_max             =   5.2580052393808E-02
(PID.TID 0000.0001) %MON dynstat_vvel_min             =  -5.1394405495609E-02
(PID.TID 0000.0001) %MON dynstat_vvel_mean            =  -1.8142317113236E-07
(PID.TID 0000.0001) %MON dynstat_vvel_sd              =   2.1968063106085E-02
(PID.TID 0000.0001) %MON dynstat_vvel_del2            =   8.0672981973882E-07
(PID.TID 0000.0001) %MON dynstat_wvel_max             =   2.5053076556360E-08
(PID.TID 0000.0001) %MON dynstat_wvel_min             =  -2.2285787925211E-08
(PID.TID 0000.0001) %MON dynstat_wvel_mean            =   9.9981893567249E-22
(PID.TID 0000.0001) %MON dynstat_wvel_sd              =   9.8021625226664E-09
(PID.TID 0000.0001) %MON dynstat_wvel_del2            =   7.8508060560761E-14
(PID.TID 0000.0001) %MON dynstat_theta_max            =   2.0000000000000E+01
(PID.TID 0000.0001) %MON dynstat_theta_min            =   2.0000000000000E+01
(PID.TID 0000.0001) %MON dynstat_theta_mean           =   1.9999999999999E+01
(PID.TID 0000.0001) %MON dynstat_theta_sd             =   1.1972645097557E-12
(PID.TID 0000.0001) %MON dynstat_theta_del2           =   0.0000000000000E+00
(PID.TID 0000.0001) %MON dynstat_salt_max             =   3.0000000000000E+01
(PID.TID 0000.0001) %MON dynstat_salt_min             =   3.0000000000000E+01
(PID.TID 0000.0001) %MON dynstat_salt_mean            =   2.9999999999998E+01
(PID.TID 0000.0001) %MON dynstat_salt_sd              =   2.1529444893531E-12
(PID.TID 0000.0001) %MON dynstat_salt_del2            =   0.0000000000000E+00
(PID.TID 0000.0001) %MON trAdv_CFL_u_max              =   1.7595573569268E-02
(PID.TID 0000.0001) %MON trAdv_CFL_v_max              =   1.2616064767711E-02
(PID.TID 0000.0001) %MON trAdv_CFL_w_max              =   6.2944487002710E-09
(PID.TID 0000.0001) %MON advcfl_uvel_max              =   1.7598106646554E-02
(PID.TID 0000.0001) %MON advcfl_vvel_max              =   1.2619212574514E-02
(PID.TID 0000.0001) %MON advcfl_wvel_max              =   1.2025476747053E-08
(PID.TID 0000.0001) %MON advcfl_W_hf_max              =   0.0000000000000E+00
(PID.TID 0000.0001) %MON pe_b_mean                    =   3.7807114458948E-06
(PID.TID 0000.0001) %MON ke_max                       =   2.6884450405756E-03
(PID.TID 0000.0001) %MON ke_mean                      =   5.4592002643226E-04
(PID.TID 0000.0001) %MON ke_vol                       =   7.2529629296391E+15
(PID.TID 0000.0001) %MON vort_r_min                   =  -2.2877995672051E-06
(PID.TID 0000.0001) %MON vort_r_max                   =   2.0242423628110E-06
(PID.TID 0000.0001) %MON vort_a_mean                  =   1.0615000000000E-04
(PID.TID 0000.0001) %MON vort_a_sd                    =   3.5843159078256E-06
(PID.TID 0000.0001) %MON vort_p_mean                  =   1.1210870169429E-04
(PID.TID 0000.0001) %MON vort_p_sd                    =   2.1056958558825E-05
(PID.TID 0000.0001) %MON surfExpan_theta_mean         =   1.9710199057747E-20
(PID.TID 0000.0001) %MON surfExpan_salt_mean          =   2.9711286493278E-20
(PID.TID 0000.0001) // =======================================================
(PID.TID 0000.0001) // End MONITOR dynamic field statistics
(PID.TID 0000.0001) // =======================================================
 cg2d: Sum(rhs),rhsMax =   1.22815315488364E-04  7.25124077067974E-03
 cg2d: Sum(rhs),rhsMax =   1.22837187382568E-04  7.25236748147660E-03
 cg2d: Sum(rhs),rhsMax =   1.22859038514243E-04  7.25349429228887E-03
 cg2d: Sum(rhs),rhsMax =   1.22880798663724E-04  7.25462120139772E-03
 cg2d: Sum(rhs),rhsMax =   1.22902543518090E-04  7.25574821317323E-03
 cg2d: Sum(rhs),rhsMax =   1.22924237723808E-04  7.25687532434669E-03
 cg2d: Sum(rhs),rhsMax =   1.22945883430904E-04  7.25800253656202E-03
 cg2d: Sum(rhs),rhsMax =   1.22967470223403E-04  7.25912985015318E-03
 cg2d: Sum(rhs),rhsMax =   1.22989034601158E-04  7.26025726586253E-03
 cg2d: Sum(rhs),rhsMax =   1.23010528463049E-04  7.26138478468931E-03
 cg2d: Sum(rhs),rhsMax =   1.23031975547895E-04  7.26251240592255E-03
 cg2d: Sum(rhs),rhsMax =   1.23053387441965E-04  7.26364013166536E-03
 cg2d: Sum(rhs),rhsMax =   1.23074726087343E-04  7.26476796087552E-03
 cg2d: Sum(rhs),rhsMax =   1.23096014213299E-04  7.26589589485654E-03
 cg2d: Sum(rhs),rhsMax =   1.23117282349824E-04  7.26702393447072E-03
 cg2d: Sum(rhs),rhsMax =   1.23138472280787E-04  7.26815207748815E-03
 cg2d: Sum(rhs),rhsMax =   1.23159628866277E-04  7.26928032747435E-03
 cg2d: Sum(rhs),rhsMax =   1.23180753394837E-04  7.27040868269675E-03
 cg2d: Sum(rhs),rhsMax =   1.23201813226461E-04  7.27153714548819E-03
 cg2d: Sum(rhs),rhsMax =   1.23222820549704E-04  7.27266571523260E-03
 cg2d: Sum(rhs),rhsMax =   1.23243775697301E-04  7.27379439286724E-03
 cg2d: Sum(rhs),rhsMax =   1.23264702882120E-04  7.27492317913344E-03
 cg2d: Sum(rhs),rhsMax =   1.23285539130548E-04  7.27605207353384E-03
 cg2d: Sum(rhs),rhsMax =   1.23306345275467E-04  7.27718107782568E-03
 cg2d: Sum(rhs),rhsMax =   1.23327079798165E-04  7.27831019167893E-03
 cg2d: Sum(rhs),rhsMax =   1.23347771531845E-04  7.27943941539850E-03
 cg2d: Sum(rhs),rhsMax =   1.23368401729983E-04  7.28056875035599E-03
 cg2d: Sum(rhs),rhsMax =   1.23389008926762E-04  7.28169819452908E-03
 cg2d: Sum(rhs),rhsMax =   1.23409550119202E-04  7.28282775094231E-03
 cg2d: Sum(rhs),rhsMax =   1.23430055777177E-04  7.28395741783880E-03
 cg2d: Sum(rhs),rhsMax =   1.23450484970091E-04  7.28508719810653E-03
 cg2d: Sum(rhs),rhsMax =   1.23470886141155E-04  7.28621709029395E-03
 cg2d: Sum(rhs),rhsMax =   1.23491225991302E-04  7.28734709685028E-03
 cg2d: Sum(rhs),rhsMax =   1.23511512200755E-04  7.28847721626878E-03
 cg2d: Sum(rhs),rhsMax =   1.23531740451980E-04  7.28960745089150E-03
 cg2d: Sum(rhs),rhsMax =   1.23551921698975E-04  7.29073779915765E-03
 cg2d: Sum(rhs),rhsMax =   1.23572039236798E-04  7.29186826351203E-03
 cg2d: Sum(rhs),rhsMax =   1.23592105712686E-04  7.29299884228717E-03
 cg2d: Sum(rhs),rhsMax =   1.23612148886715E-04  7.29412953807578E-03
 cg2d: Sum(rhs),rhsMax =   1.23632104790479E-04  7.29526034907475E-03
 cg2d: Sum(rhs),rhsMax =   1.23652023383079E-04  7.29639127805534E-03
 cg2d: Sum(rhs),rhsMax =   1.23671878123883E-04  7.29752232302940E-03
 cg2d: Sum(rhs),rhsMax =   1.23691687413111E-04  7.29865348703298E-03
 cg2d: Sum(rhs),rhsMax =   1.23711435206186E-04  7.29978476772739E-03
 cg2d: Sum(rhs),rhsMax =   1.23731125967542E-04  7.30091616864875E-03
 cg2d: Sum(rhs),rhsMax =   1.23750745966686E-04  7.30204768701710E-03
 cg2d: Sum(rhs),rhsMax =   1.23770322184306E-04  7.30317932637701E-03
 cg2d: Sum(rhs),rhsMax =   1.23789806685018E-04  7.30431108520473E-03
 cg2d: Sum(rhs),rhsMax =   1.23809293775931E-04  7.30544296429428E-03
 cg2d: Sum(rhs),rhsMax =   1.23828712526219E-04  7.30657496456992E-03
 cg2d: Sum(rhs),rhsMax =   1.23848089431649E-04  7.30770708527505E-03
 cg2d: Sum(rhs),rhsMax =   1.23867371565970E-04  7.30883932760358E-03
 cg2d: Sum(rhs),rhsMax =   1.23886621467420E-04  7.30997169127256E-03
 cg2d: Sum(rhs),rhsMax =   1.23905842305464E-04  7.31110417925856E-03
 cg2d: Sum(rhs),rhsMax =   1.23924963675137E-04  7.31223678849654E-03
 cg2d: Sum(rhs),rhsMax =   1.23944061066231E-04  7.31336952393862E-03
 cg2d: Sum(rhs),rhsMax =   1.23963069089000E-04  7.31450238125928E-03
 cg2d: Sum(rhs),rhsMax =   1.23982049057249E-04  7.31563536531020E-03
 cg2d: Sum(rhs),rhsMax =   1.24000938386358E-04  7.31676847364086E-03
 cg2d: Sum(rhs),rhsMax =   1.24019779221846E-04  7.31790170463755E-03
 cg2d: Sum(rhs),rhsMax =   1.24038587122980E-04  7.31903506100313E-03
 cg2d: Sum(rhs),rhsMax =   1.24057338937925E-04  7.32016854511595E-03
 cg2d: Sum(rhs),rhsMax =   1.24076006440139E-04  7.32130215489324E-03
 cg2d: Sum(rhs),rhsMax =   1.24094624174145E-04  7.32243589238855E-03
 cg2d: Sum(rhs),rhsMax =   1.24113198774372E-04  7.32356975619096E-03
 cg2d: Sum(rhs),rhsMax =   1.24131754760116E-04  7.32470374945297E-03
 cg2d: Sum(rhs),rhsMax =   1.24150171079948E-04  7.32583786975689E-03
 cg2d: Sum(rhs),rhsMax =   1.24168580144153E-04  7.32697211989461E-03
 cg2d: Sum(rhs),rhsMax =   1.24186903391943E-04  7.32810649880568E-03
 cg2d: Sum(rhs),rhsMax =   1.24205191838265E-04  7.32924100585845E-03
 cg2d: Sum(rhs),rhsMax =   1.24223407094491E-04  7.33037564290881E-03
 cg2d: Sum(rhs),rhsMax =   1.24241592858324E-04  7.33151041087597E-03
(PID.TID 0000.0001)      cg2d_init_res =   9.64675576414154E-03
(PID.TID 0000.0001)      cg2d_iters(min,last) =      -1     391
(PID.TID 0000.0001)      cg2d_last_res =   9.52547126261878E-08
(PID.TID 0000.0001) // =======================================================
(PID.TID 0000.0001) // Begin MONITOR dynamic field statistics
(PID.TID 0000.0001) // =======================================================
(PID.TID 0000.0001) %MON time_tsnumber                =                  4968
(PID.TID 0000.0001) %MON time_secondsf                =   5.9616000000000E+06
(PID.TID 0000.0001) %MON dynstat_eta_max              =   7.4681752640580E-02
(PID.TID 0000.0001) %MON dynstat_eta_min              =  -1.5455619614883E-01
(PID.TID 0000.0001) %MON dynstat_eta_mean             =  -4.3359779189601E-09
(PID.TID 0000.0001) %MON dynstat_eta_sd               =   6.1471443138347E-02
(PID.TID 0000.0001) %MON dynstat_eta_del2             =   3.5957383979796E-07
(PID.TID 0000.0001) %MON dynstat_uvel_max             =   5.4707167526920E-02
(PID.TID 0000.0001) %MON dynstat_uvel_min             =  -7.4079248370856E-02
(PID.TID 0000.0001) %MON dynstat_uvel_mean            =  -1.3533361336916E-09
(PID.TID 0000.0001) %MON dynstat_uvel_sd              =   2.5011024760533E-02
(PID.TID 0000.0001) %MON dynstat_uvel_del2            =   6.5940136154043E-07
(PID.TID 0000.0001) %MON dynstat_vvel_max             =   5.3517759175812E-02
(PID.TID 0000.0001) %MON dynstat_vvel_min             =  -5.1937846659088E-02
(PID.TID 0000.0001) %MON dynstat_vvel_mean            =  -1.7851015250155E-07
(PID.TID 0000.0001) %MON dynstat_vvel_sd              =   2.2240803626298E-02
(PID.TID 0000.0001) %MON dynstat_vvel_del2            =   8.1272620576968E-07
(PID.TID 0000.0001) %MON dynstat_wvel_max             =   2.3727918494797E-08
(PID.TID 0000.0001) %MON dynstat_wvel_min             =  -2.2038006378498E-08
(PID.TID 0000.0001) %MON dynstat_wvel_mean            =  -3.6740977970008E-21
(PID.TID 0000.0001) %MON dynstat_wvel_sd              =   9.7259646178003E-09
(PID.TID 0000.0001) %MON dynstat_wvel_del2            =   7.7991172572528E-14
(PID.TID 0000.0001) %MON dynstat_theta_max            =   2.0000000000000E+01
(PID.TID 0000.0001) %MON dynstat_theta_min            =   2.0000000000000E+01
(PID.TID 0000.0001) %MON dynstat_theta_mean           =   1.9999999999999E+01
(PID.TID 0000.0001) %MON dynstat_theta_sd             =   1.1972645097557E-12
(PID.TID 0000.0001) %MON dynstat_theta_del2           =   0.0000000000000E+00
(PID.TID 0000.0001) %MON dynstat_salt_max             =   3.0000000000000E+01
(PID.TID 0000.0001) %MON dynstat_salt_min             =   3.0000000000000E+01
(PID.TID 0000.0001) %MON dynstat_salt_mean            =   2.9999999999998E+01
(PID.TID 0000.0001) %MON dynstat_salt_sd              =   2.1529444893531E-12
(PID.TID 0000.0001) %MON dynstat_salt_del2            =   0.0000000000000E+00
(PID.TID 0000.0001) %MON trAdv_CFL_u_max              =   1.7776526251202E-02
(PID.TID 0000.0001) %MON trAdv_CFL_v_max              =   1.2841159642213E-02
(PID.TID 0000.0001) %MON trAdv_CFL_w_max              =   5.9541616044425E-09
(PID.TID 0000.0001) %MON advcfl_uvel_max              =   1.7779019609006E-02
(PID.TID 0000.0001) %MON advcfl_vvel_max              =   1.2844262202195E-02
(PID.TID 0000.0001) %MON advcfl_wvel_max              =   1.1389400877502E-08
(PID.TID 0000.0001) %MON advcfl_W_hf_max              =   0.0000000000000E+00
(PID.TID 0000.0001) %MON pe_b_mean                    =   3.8661668686947E-06
(PID.TID 0000.0001) %MON ke_max                       =   2.7439709710530E-03
(PID.TID 0000.0001) %MON ke_mean                      =   5.5758111892535E-04
(PID.TID 0000.0001) %MON ke_vol                       =   7.2529629296391E+15
(PID.TID 0000.0001) %MON vort_r_min                   =  -2.3136787000223E-06
(PID.TID 0000.0001) %MON vort_r_max                   =   2.0295582579821E-06
(PID.TID 0000.0001) %MON vort_a_mean                  =   1.0615000000000E-04
(PID.TID 0000.0001) %MON vort_a_sd                    =   3.5846061501142E-06
(PID.TID 0000.0001) %MON vort_p_mean                  =   1.1210870169429E-04
(PID.TID 0000.0001) %MON vort_p_sd                    =   2.1057049229676E-05
(PID.TID 0000.0001) %MON surfExpan_theta_mean         =  -7.3646888046003E-20
(PID.TID 0000.0001) %MON surfExpan_salt_mean          =  -1.1042436212851E-19
(PID.TID 0000.0001) // =======================================================
(PID.TID 0000.0001) // End MONITOR dynamic field statistics
(PID.TID 0000.0001) // =======================================================
 cg2d: Sum(rhs),rhsMax =   1.24259678719338E-04  7.33264530945506E-03
 cg2d: Sum(rhs),rhsMax =   1.24277724581611E-04  7.33378033937014E-03
 cg2d: Sum(rhs),rhsMax =   1.24295688844160E-04  7.33491550067935E-03
 cg2d: Sum(rhs),rhsMax =   1.24313618187385E-04  7.33605079424086E-03
 cg2d: Sum(rhs),rhsMax =   1.24331488517809E-04  7.33718621998951E-03
 cg2d: Sum(rhs),rhsMax =   1.24349287529904E-04  7.33832177886589E-03
 cg2d: Sum(rhs),rhsMax =   1.24367027785014E-04  7.33945747069533E-03
 cg2d: Sum(rhs),rhsMax =   1.24384697028296E-04  7.34059329653862E-03
 cg2d: Sum(rhs),rhsMax =   1.24402327596558E-04  7.34172925608788E-03
 cg2d: Sum(rhs),rhsMax =   1.24419914784605E-04  7.34286535057332E-03
 cg2d: Sum(rhs),rhsMax =   1.24437424086583E-04  7.34400157945057E-03
 cg2d: Sum(rhs),rhsMax =   1.24454874831494E-04  7.34513794426241E-03
 cg2d: Sum(rhs),rhsMax =   1.24472259023643E-04  7.34627444403455E-03
 cg2d: Sum(rhs),rhsMax =   1.24489590174037E-04  7.34741108088956E-03
 cg2d: Sum(rhs),rhsMax =   1.24506827386365E-04  7.34854785341367E-03
 cg2d: Sum(rhs),rhsMax =   1.24524013775071E-04  7.34968476384953E-03
 cg2d: Sum(rhs),rhsMax =   1.24541141117333E-04  7.35082181100143E-03
 cg2d: Sum(rhs),rhsMax =   1.24558238012334E-04  7.35195899628133E-03
 cg2d: Sum(rhs),rhsMax =   1.24575259956195E-04  7.35309631920471E-03
 cg2d: Sum(rhs),rhsMax =   1.24592241430723E-04  7.35423378087884E-03
 cg2d: Sum(rhs),rhsMax =   1.24609125957322E-04  7.35537138006728E-03
 cg2d: Sum(rhs),rhsMax =   1.24625966826977E-04  7.35650912141182E-03
 cg2d: Sum(rhs),rhsMax =   1.24642736900779E-04  7.35764700148288E-03
 cg2d: Sum(rhs),rhsMax =   1.24659434026821E-04  7.35878502153920E-03
 cg2d: Sum(rhs),rhsMax =   1.24676056833492E-04  7.35992318129152E-03
 cg2d: Sum(rhs),rhsMax =   1.24692641661737E-04  7.36106148377132E-03
 cg2d: Sum(rhs),rhsMax =   1.24709163049793E-04  7.36219992687726E-03
 cg2d: Sum(rhs),rhsMax =   1.24725620007389E-04  7.36333851215935E-03
 cg2d: Sum(rhs),rhsMax =   1.24742023332119E-04  7.36447723863453E-03
 cg2d: Sum(rhs),rhsMax =   1.24758362778840E-04  7.36561610894085E-03
 cg2d: Sum(rhs),rhsMax =   1.24774618097134E-04  7.36675512100635E-03
 cg2d: Sum(rhs),rhsMax =   1.24790827061114E-04  7.36789427755266E-03
 cg2d: Sum(rhs),rhsMax =   1.24806939817739E-04  7.36903357689726E-03
 cg2d: Sum(rhs),rhsMax =   1.24823013397758E-04  7.37017302154345E-03
 cg2d: Sum(rhs),rhsMax =   1.24839028916231E-04  7.37131261095198E-03
 cg2d: Sum(rhs),rhsMax =   1.24854999162982E-04  7.37245234402324E-03
 cg2d: Sum(rhs),rhsMax =   1.24870892254105E-04  7.37359222320782E-03
 cg2d: Sum(rhs),rhsMax =   1.24886740506241E-04  7.37473224673632E-03
 cg2d: Sum(rhs),rhsMax =   1.24902506195512E-04  7.37587241557794E-03
 cg2d: Sum(rhs),rhsMax =   1.24918215705798E-04  7.37701273280642E-03
 cg2d: Sum(rhs),rhsMax =   1.24938352186139E-04  7.37815318510094E-03
 cg2d: Sum(rhs),rhsMax =   1.24958399580006E-04  7.37929379303234E-03
 cg2d: Sum(rhs),rhsMax =   1.24978401215816E-04  7.38043455338160E-03
 cg2d: Sum(rhs),rhsMax =   1.24998328587840E-04  7.38157545871019E-03
 cg2d: Sum(rhs),rhsMax =   1.25018186456753E-04  7.38271651548126E-03
 cg2d: Sum(rhs),rhsMax =   1.25037970752447E-04  7.38385771761612E-03
 cg2d: Sum(rhs),rhsMax =   1.25057684294817E-04  7.38499907217647E-03
 cg2d: Sum(rhs),rhsMax =   1.25077338203526E-04  7.38614057299737E-03
 cg2d: Sum(rhs),rhsMax =   1.25096933048207E-04  7.38728222661661E-03
 cg2d: Sum(rhs),rhsMax =   1.25116426308019E-04  7.38842402735386E-03
 cg2d: Sum(rhs),rhsMax =   1.25135869859793E-04  7.38956598188709E-03
 cg2d: Sum(rhs),rhsMax =   1.25155233993562E-04  7.39070808432041E-03
 cg2d: Sum(rhs),rhsMax =   1.25174547117940E-04  7.39185034189265E-03
 cg2d: Sum(rhs),rhsMax =   1.25193786691155E-04  7.39299274716304E-03
 cg2d: Sum(rhs),rhsMax =   1.25212961221930E-04  7.39413530945930E-03
 cg2d: Sum(rhs),rhsMax =   1.25232081341250E-04  7.39527801874135E-03
 cg2d: Sum(rhs),rhsMax =   1.25251119356259E-04  7.39642088592542E-03
 cg2d: Sum(rhs),rhsMax =   1.25270089656222E-04  7.39756390107199E-03
 cg2d: Sum(rhs),rhsMax =   1.25289000597800E-04  7.39870707529776E-03
 cg2d: Sum(rhs),rhsMax =   1.25307806446320E-04  7.39985039792345E-03
 cg2d: Sum(rhs),rhsMax =   1.25326581378138E-04  7.40099388032382E-03
 cg2d: Sum(rhs),rhsMax =   1.25345292887280E-04  7.40213751113087E-03
 cg2d: Sum(rhs),rhsMax =   1.25363928465022E-04  7.40328130396638E-03
 cg2d: Sum(rhs),rhsMax =   1.25382492047297E-04  7.40442524570336E-03
 cg2d: Sum(rhs),rhsMax =   1.25400969692653E-04  7.40556934954460E-03
 cg2d: Sum(rhs),rhsMax =   1.25419399639252E-04  7.40671360261950E-03
 cg2d: Sum(rhs),rhsMax =   1.25437768554517E-04  7.40785801960177E-03
 cg2d: Sum(rhs),rhsMax =   1.25456039093017E-04  7.40900258815970E-03
 cg2d: Sum(rhs),rhsMax =   1.25474269870125E-04  7.41014731676763E-03
 cg2d: Sum(rhs),rhsMax =   1.25492418694631E-04  7.41129219697292E-03
 cg2d: Sum(rhs),rhsMax =   1.25510505588359E-04  7.41243724325773E-03
 cg2d: Sum(rhs),rhsMax =   1.25528516011558E-04  7.41358244005770E-03
(PID.TID 0000.0001)      cg2d_init_res =   9.48130024522769E-03
(PID.TID 0000.0001)      cg2d_iters(min,last) =      -1     390
(PID.TID 0000.0001)      cg2d_last_res =   9.85199670161966E-08
(PID.TID 0000.0001) // =======================================================
(PID.TID 0000.0001) // Begin MONITOR dynamic field statistics
(PID.TID 0000.0001) // =======================================================
(PID.TID 0000.0001) %MON time_tsnumber                =                  5040
(PID.TID 0000.0001) %MON time_secondsf                =   6.0480000000000E+06
(PID.TID 0000.0001) %MON dynstat_eta_max              =   7.5207423168687E-02
(PID.TID 0000.0001) %MON dynstat_eta_min              =  -1.5641798047389E-01
(PID.TID 0000.0001) %MON dynstat_eta_mean             =  -4.4299197792096E-09
(PID.TID 0000.0001) %MON dynstat_eta_sd               =   6.2148291458498E-02
(PID.TID 0000.0001) %MON dynstat_eta_del2             =   3.6254284135271E-07
(PID.TID 0000.0001) %MON dynstat_uvel_max             =   5.4757303393760E-02
(PID.TID 0000.0001) %MON dynstat_uvel_min             =  -7.4821604520367E-02
(PID.TID 0000.0001) %MON dynstat_uvel_mean            =   2.2655208810709E-08
(PID.TID 0000.0001) %MON dynstat_uvel_sd              =   2.5232508793783E-02
(PID.TID 0000.0001) %MON dynstat_uvel_del2            =   6.6085917408443E-07
(PID.TID 0000.0001) %MON dynstat_vvel_max             =   5.4453017171845E-02
(PID.TID 0000.0001) %MON dynstat_vvel_min             =  -5.2460469357936E-02
(PID.TID 0000.0001) %MON dynstat_vvel_mean            =  -1.7866314474324E-07
(PID.TID 0000.0001) %MON dynstat_vvel_sd              =   2.2517533310921E-02
(PID.TID 0000.0001) %MON dynstat_vvel_del2            =   8.1944033047210E-07
(PID.TID 0000.0001) %MON dynstat_wvel_max             =   2.2390505433359E-08
(PID.TID 0000.0001) %MON dynstat_wvel_min             =  -2.1765874472621E-08
(PID.TID 0000.0001) %MON dynstat_wvel_mean            =  -4.6815563018087E-21
(PID.TID 0000.0001) %MON dynstat_wvel_sd              =   9.6474886903910E-09
(PID.TID 0000.0001) %MON dynstat_wvel_del2            =   7.7513863719663E-14
(PID.TID 0000.0001) %MON dynstat_theta_max            =   2.0000000000000E+01
(PID.TID 0000.0001) %MON dynstat_theta_min            =   2.0000000000000E+01
(PID.TID 0000.0001) %MON dynstat_theta_mean           =   1.9999999999999E+01
(PID.TID 0000.0001) %MON dynstat_theta_sd             =   1.1972645097557E-12
(PID.TID 0000.0001) %MON dynstat_theta_del2           =   0.0000000000000E+00
(PID.TID 0000.0001) %MON dynstat_salt_max             =   3.0000000000000E+01
(PID.TID 0000.0001) %MON dynstat_salt_min             =   3.0000000000000E+01
(PID.TID 0000.0001) %MON dynstat_salt_mean            =   2.9999999999998E+01
(PID.TID 0000.0001) %MON dynstat_salt_sd              =   2.1529444893531E-12
(PID.TID 0000.0001) %MON dynstat_salt_del2            =   0.0000000000000E+00
(PID.TID 0000.0001) %MON trAdv_CFL_u_max              =   1.7954728404432E-02
(PID.TID 0000.0001) %MON trAdv_CFL_v_max              =   1.3065627995465E-02
(PID.TID 0000.0001) %MON trAdv_CFL_w_max              =   5.6113745332732E-09
(PID.TID 0000.0001) %MON advcfl_uvel_max              =   1.7957185084888E-02
(PID.TID 0000.0001) %MON advcfl_vvel_max              =   1.3068724121243E-02
(PID.TID 0000.0001) %MON advcfl_wvel_max              =   1.0747442608012E-08
(PID.TID 0000.0001) %MON advcfl_W_hf_max              =   0.0000000000000E+00
(PID.TID 0000.0001) %MON pe_b_mean                    =   3.9517745903679E-06
(PID.TID 0000.0001) %MON ke_max                       =   2.7992134557936E-03
(PID.TID 0000.0001) %MON ke_mean                      =   5.6928524642775E-04
(PID.TID 0000.0001) %MON ke_vol                       =   7.2529629296391E+15
(PID.TID 0000.0001) %MON vort_r_min                   =  -2.3397348488771E-06
(PID.TID 0000.0001) %MON vort_r_max                   =   2.0441617810543E-06
(PID.TID 0000.0001) %MON vort_a_mean                  =   1.0615000000000E-04
(PID.TID 0000.0001) %MON vort_a_sd                    =   3.5849014245419E-06
(PID.TID 0000.0001) %MON vort_p_mean                  =   1.1210870169429E-04
(PID.TID 0000.0001) %MON vort_p_sd                    =   2.1057142655162E-05
(PID.TID 0000.0001) %MON surfExpan_theta_mean         =  -9.4465541286033E-20
(PID.TID 0000.0001) %MON surfExpan_salt_mean          =  -1.4162474499526E-19
(PID.TID 0000.0001) // =======================================================
(PID.TID 0000.0001) // End MONITOR dynamic field statistics
(PID.TID 0000.0001) // =======================================================
 cg2d: Sum(rhs),rhsMax =   1.25546460798081E-04  7.41472780324451E-03
 cg2d: Sum(rhs),rhsMax =   1.25564342851362E-04  7.41587331756171E-03
 cg2d: Sum(rhs),rhsMax =   1.25582169316466E-04  7.41701899955435E-03
 cg2d: Sum(rhs),rhsMax =   1.25599910855119E-04  7.41816483333387E-03
 cg2d: Sum(rhs),rhsMax =   1.25617592608810E-04  7.41931083426221E-03
 cg2d: Sum(rhs),rhsMax =   1.25635195161807E-04  7.42045698833091E-03
 cg2d: Sum(rhs),rhsMax =   1.25652761589366E-04  7.42160330899278E-03
 cg2d: Sum(rhs),rhsMax =   1.25670228327120E-04  7.42274978330562E-03
 cg2d: Sum(rhs),rhsMax =   1.25687651502468E-04  7.42389642785012E-03
 cg2d: Sum(rhs),rhsMax =   1.25704985857874E-04  7.42504322734096E-03
 cg2d: Sum(rhs),rhsMax =   1.25722247748586E-04  7.42619019430905E-03
 cg2d: Sum(rhs),rhsMax =   1.25739437067861E-04  7.42733731621171E-03
 cg2d: Sum(rhs),rhsMax =   1.25756596368387E-04  7.42848460874876E-03
 cg2d: Sum(rhs),rhsMax =   1.25773675482167E-04  7.42963205676329E-03
 cg2d: Sum(rhs),rhsMax =   1.25790682668751E-04  7.43077967627948E-03
 cg2d: Sum(rhs),rhsMax =   1.25807618498238E-04  7.43192745196917E-03
 cg2d: Sum(rhs),rhsMax =   1.25824511780682E-04  7.43307539879756E-03
 cg2d: Sum(rhs),rhsMax =   1.25841322860809E-04  7.43422350257862E-03
 cg2d: Sum(rhs),rhsMax =   1.25858096761506E-04  7.43537177801562E-03
 cg2d: Sum(rhs),rhsMax =   1.25874773049900E-04  7.43652021118548E-03
 cg2d: Sum(rhs),rhsMax =   1.25891412296152E-04  7.43766881747205E-03
 cg2d: Sum(rhs),rhsMax =   1.25907973788569E-04  7.43881758212332E-03
 cg2d: Sum(rhs),rhsMax =   1.25924468563402E-04  7.43996652017649E-03
 cg2d: Sum(rhs),rhsMax =   1.25940920039303E-04  7.44111561656019E-03
 cg2d: Sum(rhs),rhsMax =   1.25957284260879E-04  7.44226488730103E-03
 cg2d: Sum(rhs),rhsMax =   1.25973599501260E-04  7.44341431769025E-03
 cg2d: Sum(rhs),rhsMax =   1.25989829539499E-04  7.44456392214928E-03
 cg2d: Sum(rhs),rhsMax =   1.26006007831326E-04  7.44571368687610E-03
 cg2d: Sum(rhs),rhsMax =   1.26022146274053E-04  7.44686362669609E-03
 cg2d: Sum(rhs),rhsMax =   1.26038185037957E-04  7.44801372831028E-03
 cg2d: Sum(rhs),rhsMax =   1.26054207006674E-04  7.44916400478964E-03
 cg2d: Sum(rhs),rhsMax =   1.26070136886018E-04  7.45031444399585E-03
 cg2d: Sum(rhs),rhsMax =   1.26086017169840E-04  7.45146505871489E-03
 cg2d: Sum(rhs),rhsMax =   1.26101843642656E-04  7.45261583759282E-03
 cg2d: Sum(rhs),rhsMax =   1.26117614431477E-04  7.45376679115115E-03
 cg2d: Sum(rhs),rhsMax =   1.26133337147753E-04  7.45491790871650E-03
 cg2d: Sum(rhs),rhsMax =   1.26148992950775E-04  7.45606920246101E-03
 cg2d: Sum(rhs),rhsMax =   1.26164546199840E-04  7.45722066210477E-03
 cg2d: Sum(rhs),rhsMax =   1.26180075796853E-04  7.45837229692594E-03
 cg2d: Sum(rhs),rhsMax =   1.26195563868677E-04  7.45952409805296E-03
 cg2d: Sum(rhs),rhsMax =   1.26210977887791E-04  7.46067607627162E-03
 cg2d: Sum(rhs),rhsMax =   1.26226348520025E-04  7.46182822079412E-03
 cg2d: Sum(rhs),rhsMax =   1.26241671238592E-04  7.46298054363898E-03
 cg2d: Sum(rhs),rhsMax =   1.26256917879642E-04  7.46413303410000E-03
 cg2d: Sum(rhs),rhsMax =   1.26272113391870E-04  7.46528570148100E-03
 cg2d: Sum(rhs),rhsMax =   1.26287250383981E-04  7.46643853641243E-03
 cg2d: Sum(rhs),rhsMax =   1.26302347543347E-04  7.46759155173283E-03
 cg2d: Sum(rhs),rhsMax =   1.26317390387724E-04  7.46874473441425E-03
 cg2d: Sum(rhs),rhsMax =   1.26332387395191E-04  7.46989809682269E-03
 cg2d: Sum(rhs),rhsMax =   1.26347339650139E-04  7.47105162780282E-03
 cg2d: Sum(rhs),rhsMax =   1.26362244837338E-04  7.47220533871832E-03
 cg2d: Sum(rhs),rhsMax =   1.26377094795924E-04  7.47335921906718E-03
 cg2d: Sum(rhs),rhsMax =   1.26391883187764E-04  7.47451327912325E-03
 cg2d: Sum(rhs),rhsMax =   1.26406630332436E-04  7.47566751014038E-03
 cg2d: Sum(rhs),rhsMax =   1.26421340787518E-04  7.47682192200637E-03
 cg2d: Sum(rhs),rhsMax =   1.26436017234784E-04  7.47797650516658E-03
 cg2d: Sum(rhs),rhsMax =   1.26450618003992E-04  7.47913126952727E-03
 cg2d: Sum(rhs),rhsMax =   1.26465196125037E-04  7.48028620532838E-03
 cg2d: Sum(rhs),rhsMax =   1.26479717322877E-04  7.48144132269353E-03
 cg2d: Sum(rhs),rhsMax =   1.26494180939463E-04  7.48259661321346E-03
 cg2d: Sum(rhs),rhsMax =   1.26508623232292E-04  7.48375208565211E-03
 cg2d: Sum(rhs),rhsMax =   1.26523016366966E-04  7.48490773068844E-03
 cg2d: Sum(rhs),rhsMax =   1.26537349526562E-04  7.48606355827886E-03
 cg2d: Sum(rhs),rhsMax =   1.26551666295968E-04  7.48721956023878E-03
 cg2d: Sum(rhs),rhsMax =   1.26565938364947E-04  7.48837574487674E-03
 cg2d: Sum(rhs),rhsMax =   1.26580160093066E-04  7.48953210338970E-03
 cg2d: Sum(rhs),rhsMax =   1.26594352389919E-04  7.49068864532248E-03
 cg2d: Sum(rhs),rhsMax =   1.26608521820594E-04  7.49184536228486E-03
 cg2d: Sum(rhs),rhsMax =   1.26622623093312E-04  7.49300226337322E-03
 cg2d: Sum(rhs),rhsMax =   1.26636710130746E-04  7.49415934011127E-03
 cg2d: Sum(rhs),rhsMax =   1.26650758956522E-04  7.49531660034721E-03
 cg2d: Sum(rhs),rhsMax =   1.26664783880542E-04  7.49647403808837E-03
(PID.TID 0000.0001)      cg2d_init_res =   9.31547194944557E-03
(PID.TID 0000.0001)      cg2d_iters(min,last) =      -1     390
(PID.TID 0000.0001)      cg2d_last_res =   9.48936001930848E-08
(PID.TID 0000.0001) // =======================================================
(PID.TID 0000.0001) // Begin MONITOR dynamic field statistics
(PID.TID 0000.0001) // =======================================================
(PID.TID 0000.0001) %MON time_tsnumber                =                  5112
(PID.TID 0000.0001) %MON time_secondsf                =   6.1344000000000E+06
(PID.TID 0000.0001) %MON dynstat_eta_max              =   7.5703608584822E-02
(PID.TID 0000.0001) %MON dynstat_eta_min              =  -1.5826180955574E-01
(PID.TID 0000.0001) %MON dynstat_eta_mean             =  -4.5198510032743E-09
(PID.TID 0000.0001) %MON dynstat_eta_sd               =   6.2818217428291E-02
(PID.TID 0000.0001) %MON dynstat_eta_del2             =   3.6553612800120E-07
(PID.TID 0000.0001) %MON dynstat_uvel_max             =   5.4766335077700E-02
(PID.TID 0000.0001) %MON dynstat_uvel_min             =  -7.5553387063697E-02
(PID.TID 0000.0001) %MON dynstat_uvel_mean            =   4.7346735229857E-08
(PID.TID 0000.0001) %MON dynstat_uvel_sd              =   2.5449374657175E-02
(PID.TID 0000.0001) %MON dynstat_uvel_del2            =   6.6244803280906E-07
(PID.TID 0000.0001) %MON dynstat_vvel_max             =   5.5372971880621E-02
(PID.TID 0000.0001) %MON dynstat_vvel_min             =  -5.2973755997342E-02
(PID.TID 0000.0001) %MON dynstat_vvel_mean            =  -1.8203367300684E-07
(PID.TID 0000.0001) %MON dynstat_vvel_sd              =   2.2795923076293E-02
(PID.TID 0000.0001) %MON dynstat_vvel_del2            =   8.2672453057491E-07
(PID.TID 0000.0001) %MON dynstat_wvel_max             =   2.1062873772025E-08
(PID.TID 0000.0001) %MON dynstat_wvel_min             =  -2.1473596534343E-08
(PID.TID 0000.0001) %MON dynstat_wvel_mean            =   3.0335197100874E-21
(PID.TID 0000.0001) %MON dynstat_wvel_sd              =   9.5703538360123E-09
(PID.TID 0000.0001) %MON dynstat_wvel_del2            =   7.7014267234578E-14
(PID.TID 0000.0001) %MON dynstat_theta_max            =   2.0000000000000E+01
(PID.TID 0000.0001) %MON dynstat_theta_min            =   2.0000000000000E+01
(PID.TID 0000.0001) %MON dynstat_theta_mean           =   1.9999999999999E+01
(PID.TID 0000.0001) %MON dynstat_theta_sd             =   1.1972645097557E-12
(PID.TID 0000.0001) %MON dynstat_theta_del2           =   0.0000000000000E+00
(PID.TID 0000.0001) %MON dynstat_salt_max             =   3.0000000000000E+01
(PID.TID 0000.0001) %MON dynstat_salt_min             =   3.0000000000000E+01
(PID.TID 0000.0001) %MON dynstat_salt_mean            =   2.9999999999998E+01
(PID.TID 0000.0001) %MON dynstat_salt_sd              =   2.1529444893531E-12
(PID.TID 0000.0001) %MON dynstat_salt_del2            =   0.0000000000000E+00
(PID.TID 0000.0001) %MON trAdv_CFL_u_max              =   1.8130390121513E-02
(PID.TID 0000.0001) %MON trAdv_CFL_v_max              =   1.3286476543181E-02
(PID.TID 0000.0001) %MON trAdv_CFL_w_max              =   5.2717445312867E-09
(PID.TID 0000.0001) %MON advcfl_uvel_max              =   1.8132812895287E-02
(PID.TID 0000.0001) %MON advcfl_vvel_max              =   1.3289513251349E-02
(PID.TID 0000.0001) %MON advcfl_wvel_max              =   1.0307326336484E-08
(PID.TID 0000.0001) %MON advcfl_W_hf_max              =   0.0000000000000E+00
(PID.TID 0000.0001) %MON pe_b_mean                    =   4.0374298878672E-06
(PID.TID 0000.0001) %MON ke_max                       =   2.8542134091793E-03
(PID.TID 0000.0001) %MON ke_mean                      =   5.8103510314770E-04
(PID.TID 0000.0001) %MON ke_vol                       =   7.2529629296391E+15
(PID.TID 0000.0001) %MON vort_r_min                   =  -2.3660221553308E-06
(PID.TID 0000.0001) %MON vort_r_max                   =   2.0669065046662E-06
(PID.TID 0000.0001) %MON vort_a_mean                  =   1.0615000000000E-04
(PID.TID 0000.0001) %MON vort_a_sd                    =   3.5852034323446E-06
(PID.TID 0000.0001) %MON vort_p_mean                  =   1.1210870169429E-04
(PID.TID 0000.0001) %MON vort_p_sd                    =   2.1057236585268E-05
(PID.TID 0000.0001) %MON surfExpan_theta_mean         =   6.0474654345406E-20
(PID.TID 0000.0001) %MON surfExpan_salt_mean          =   9.0759210136993E-20
(PID.TID 0000.0001) // =======================================================
(PID.TID 0000.0001) // End MONITOR dynamic field statistics
(PID.TID 0000.0001) // =======================================================
 cg2d: Sum(rhs),rhsMax =   1.26678774729561E-04  7.49763165941831E-03
 cg2d: Sum(rhs),rhsMax =   1.26692726258496E-04  7.49878945843872E-03
 cg2d: Sum(rhs),rhsMax =   1.26706665622346E-04  7.49994744200202E-03
 cg2d: Sum(rhs),rhsMax =   1.26720537458318E-04  7.50110560467222E-03
 cg2d: Sum(rhs),rhsMax =   1.26734407502736E-04  7.50226395148350E-03
 cg2d: Sum(rhs),rhsMax =   1.26748244742667E-04  7.50342247730207E-03
 cg2d: Sum(rhs),rhsMax =   1.26762079283009E-04  7.50458118737147E-03
 cg2d: Sum(rhs),rhsMax =   1.26775845677771E-04  7.50574007710162E-03
 cg2d: Sum(rhs),rhsMax =   1.26789640207591E-04  7.50689915309734E-03
 cg2d: Sum(rhs),rhsMax =   1.26803390153333E-04  7.50805840901050E-03
 cg2d: Sum(rhs),rhsMax =   1.26817097279085E-04  7.50921785073318E-03
 cg2d: Sum(rhs),rhsMax =   1.26830793309253E-04  7.51037747296524E-03
 cg2d: Sum(rhs),rhsMax =   1.26844466122968E-04  7.51153728248421E-03
 cg2d: Sum(rhs),rhsMax =   1.26858151714347E-04  7.51269727240937E-03
 cg2d: Sum(rhs),rhsMax =   1.26871792796938E-04  7.51385744954011E-03
 cg2d: Sum(rhs),rhsMax =   1.26885411966047E-04  7.51501780812669E-03
 cg2d: Sum(rhs),rhsMax =   1.26898996636923E-04  7.51617835470439E-03
 cg2d: Sum(rhs),rhsMax =   1.26912595866041E-04  7.51733908207893E-03
 cg2d: Sum(rhs),rhsMax =   1.26926181888890E-04  7.51849999976030E-03
 cg2d: Sum(rhs),rhsMax =   1.26939747147906E-04  7.51966109816111E-03
 cg2d: Sum(rhs),rhsMax =   1.26953319546203E-04  7.52082238604843E-03
 cg2d: Sum(rhs),rhsMax =   1.26966853527859E-04  7.52198385819872E-03
 cg2d: Sum(rhs),rhsMax =   1.26980410198414E-04  7.52314551415933E-03
 cg2d: Sum(rhs),rhsMax =   1.26993943106776E-04  7.52430735834111E-03
 cg2d: Sum(rhs),rhsMax =   1.27007477025898E-04  7.52546938860894E-03
 cg2d: Sum(rhs),rhsMax =   1.27021008580489E-04  7.52663160659741E-03
 cg2d: Sum(rhs),rhsMax =   1.27034534788394E-04  7.52779401027097E-03
 cg2d: Sum(rhs),rhsMax =   1.27048034093043E-04  7.52895660146038E-03
 cg2d: Sum(rhs),rhsMax =   1.27061545391620E-04  7.53011938208246E-03
 cg2d: Sum(rhs),rhsMax =   1.27075055629794E-04  7.53128234863334E-03
 cg2d: Sum(rhs),rhsMax =   1.27088586908026E-04  7.53244550387336E-03
 cg2d: Sum(rhs),rhsMax =   1.27102096401596E-04  7.53360884610899E-03
 cg2d: Sum(rhs),rhsMax =   1.27115627635267E-04  7.53477237772104E-03
 cg2d: Sum(rhs),rhsMax =   1.27129145463102E-04  7.53593609897696E-03
 cg2d: Sum(rhs),rhsMax =   1.27142672604548E-04  7.53710000617768E-03
 cg2d: Sum(rhs),rhsMax =   1.27156181329383E-04  7.53826410315350E-03
 cg2d: Sum(rhs),rhsMax =   1.27169720090599E-04  7.53942838982074E-03
 cg2d: Sum(rhs),rhsMax =   1.27183275459204E-04  7.54059286575533E-03
 cg2d: Sum(rhs),rhsMax =   1.27196823225122E-04  7.54175753251447E-03
 cg2d: Sum(rhs),rhsMax =   1.27210396036337E-04  7.54292238666717E-03
 cg2d: Sum(rhs),rhsMax =   1.27223979289637E-04  7.54408743230102E-03
 cg2d: Sum(rhs),rhsMax =   1.27237561480304E-04  7.54525266807709E-03
 cg2d: Sum(rhs),rhsMax =   1.27251165954286E-04  7.54641809480364E-03
 cg2d: Sum(rhs),rhsMax =   1.27264797656312E-04  7.54758371178661E-03
 cg2d: Sum(rhs),rhsMax =   1.27278445392095E-04  7.54874951994499E-03
 cg2d: Sum(rhs),rhsMax =   1.27292097196894E-04  7.54991551869881E-03
 cg2d: Sum(rhs),rhsMax =   1.27305772596852E-04  7.55108170968549E-03
 cg2d: Sum(rhs),rhsMax =   1.27319469656813E-04  7.55224809068511E-03
 cg2d: Sum(rhs),rhsMax =   1.27333192761030E-04  7.55341466332284E-03
 cg2d: Sum(rhs),rhsMax =   1.27346931912237E-04  7.55458142865226E-03
 cg2d: Sum(rhs),rhsMax =   1.27360658374597E-04  7.55574838663997E-03
 cg2d: Sum(rhs),rhsMax =   1.27374436163362E-04  7.55691553613202E-03
 cg2d: Sum(rhs),rhsMax =   1.27388233540022E-04  7.55808287760740E-03
 cg2d: Sum(rhs),rhsMax =   1.27402071228288E-04  7.55925041225618E-03
 cg2d: Sum(rhs),rhsMax =   1.27415919586701E-04  7.56041813858280E-03
 cg2d: Sum(rhs),rhsMax =   1.27429793069087E-04  7.56158605933140E-03
 cg2d: Sum(rhs),rhsMax =   1.27447948171835E-04  7.56275417719481E-03
 cg2d: Sum(rhs),rhsMax =   1.27466103206351E-04  7.56392248340555E-03
 cg2d: Sum(rhs),rhsMax =   1.27484303230312E-04  7.56509098466931E-03
 cg2d: Sum(rhs),rhsMax =   1.27502532047350E-04  7.56625967725886E-03
 cg2d: Sum(rhs),rhsMax =   1.27520768987707E-04  7.56742856619292E-03
 cg2d: Sum(rhs),rhsMax =   1.27539044613050E-04  7.56859764696271E-03
 cg2d: Sum(rhs),rhsMax =   1.27557365170479E-04  7.56976692440990E-03
 cg2d: Sum(rhs),rhsMax =   1.27575670036786E-04  7.57093639429201E-03
 cg2d: Sum(rhs),rhsMax =   1.27594040770796E-04  7.57210606056349E-03
 cg2d: Sum(rhs),rhsMax =   1.27612447209957E-04  7.57327592117926E-03
 cg2d: Sum(rhs),rhsMax =   1.27630881622977E-04  7.57444597579791E-03
 cg2d: Sum(rhs),rhsMax =   1.27649372839590E-04  7.57561622623245E-03
 cg2d: Sum(rhs),rhsMax =   1.27667904670062E-04  7.57678667120812E-03
 cg2d: Sum(rhs),rhsMax =   1.27686448152134E-04  7.57795731292313E-03
 cg2d: Sum(rhs),rhsMax =   1.27705030566997E-04  7.57912814961540E-03
 cg2d: Sum(rhs),rhsMax =   1.27723661651517E-04  7.58029918237973E-03
(PID.TID 0000.0001)      cg2d_init_res =   9.14872857923209E-03
(PID.TID 0000.0001)      cg2d_iters(min,last) =      -1     389
(PID.TID 0000.0001)      cg2d_last_res =   9.90761321659078E-08
(PID.TID 0000.0001) // =======================================================
(PID.TID 0000.0001) // Begin MONITOR dynamic field statistics
(PID.TID 0000.0001) // =======================================================
(PID.TID 0000.0001) %MON time_tsnumber                =                  5184
(PID.TID 0000.0001) %MON time_secondsf                =   6.2208000000000E+06
(PID.TID 0000.0001) %MON dynstat_eta_max              =   7.6170234323134E-02
(PID.TID 0000.0001) %MON dynstat_eta_min              =  -1.6008431732036E-01
(PID.TID 0000.0001) %MON dynstat_eta_mean             =  -4.6087626278561E-09
(PID.TID 0000.0001) %MON dynstat_eta_sd               =   6.3480858070315E-02
(PID.TID 0000.0001) %MON dynstat_eta_del2             =   3.6856439789060E-07
(PID.TID 0000.0001) %MON dynstat_uvel_max             =   5.4741572982154E-02
(PID.TID 0000.0001) %MON dynstat_uvel_min             =  -7.6275371557485E-02
(PID.TID 0000.0001) %MON dynstat_uvel_mean            =   7.1323998620273E-08
(PID.TID 0000.0001) %MON dynstat_uvel_sd              =   2.5664021367727E-02
(PID.TID 0000.0001) %MON dynstat_uvel_del2            =   6.6427385321711E-07
(PID.TID 0000.0001) %MON dynstat_vvel_max             =   5.6274301951205E-02
(PID.TID 0000.0001) %MON dynstat_vvel_min             =  -5.3489796584079E-02
(PID.TID 0000.0001) %MON dynstat_vvel_mean            =  -1.8856418205149E-07
(PID.TID 0000.0001) %MON dynstat_vvel_sd              =   2.3073571713660E-02
(PID.TID 0000.0001) %MON dynstat_vvel_del2            =   8.3443094281623E-07
(PID.TID 0000.0001) %MON dynstat_wvel_max             =   1.9760930764023E-08
(PID.TID 0000.0001) %MON dynstat_wvel_min             =  -2.1170243626111E-08
(PID.TID 0000.0001) %MON dynstat_wvel_mean            =  -3.6378529843400E-21
(PID.TID 0000.0001) %MON dynstat_wvel_sd              =   9.4970711530789E-09
(PID.TID 0000.0001) %MON dynstat_wvel_del2            =   7.6550551019315E-14
(PID.TID 0000.0001) %MON dynstat_theta_max            =   2.0000000000000E+01
(PID.TID 0000.0001) %MON dynstat_theta_min            =   2.0000000000000E+01
(PID.TID 0000.0001) %MON dynstat_theta_mean           =   1.9999999999999E+01
(PID.TID 0000.0001) %MON dynstat_theta_sd             =   1.1972645097557E-12
(PID.TID 0000.0001) %MON dynstat_theta_del2           =   0.0000000000000E+00
(PID.TID 0000.0001) %MON dynstat_salt_max             =   3.0000000000000E+01
(PID.TID 0000.0001) %MON dynstat_salt_min             =   3.0000000000000E+01
(PID.TID 0000.0001) %MON dynstat_salt_mean            =   2.9999999999998E+01
(PID.TID 0000.0001) %MON dynstat_salt_sd              =   2.1529444893531E-12
(PID.TID 0000.0001) %MON dynstat_salt_del2            =   0.0000000000000E+00
(PID.TID 0000.0001) %MON trAdv_CFL_u_max              =   1.8303697919543E-02
(PID.TID 0000.0001) %MON trAdv_CFL_v_max              =   1.3502859993854E-02
(PID.TID 0000.0001) %MON trAdv_CFL_w_max              =   4.9372578548755E-09
(PID.TID 0000.0001) %MON advcfl_uvel_max              =   1.8306089173796E-02
(PID.TID 0000.0001) %MON advcfl_vvel_max              =   1.3505832468289E-02
(PID.TID 0000.0001) %MON advcfl_wvel_max              =   1.0161716940533E-08
(PID.TID 0000.0001) %MON advcfl_W_hf_max              =   0.0000000000000E+00
(PID.TID 0000.0001) %MON pe_b_mean                    =   4.1230571420191E-06
(PID.TID 0000.0001) %MON ke_max                       =   2.9090070095001E-03
(PID.TID 0000.0001) %MON ke_mean                      =   5.9283520872792E-04
(PID.TID 0000.0001) %MON ke_vol                       =   7.2529629296391E+15
(PID.TID 0000.0001) %MON vort_r_min                   =  -2.3925863244987E-06
(PID.TID 0000.0001) %MON vort_r_max                   =   2.0957380388141E-06
(PID.TID 0000.0001) %MON vort_a_mean                  =   1.0615000000000E-04
(PID.TID 0000.0001) %MON vort_a_sd                    =   3.5855137950467E-06
(PID.TID 0000.0001) %MON vort_p_mean                  =   1.1210870169429E-04
(PID.TID 0000.0001) %MON vort_p_sd                    =   2.1057328798141E-05
(PID.TID 0000.0001) %MON surfExpan_theta_mean         =  -7.3315005552629E-20
(PID.TID 0000.0001) %MON surfExpan_salt_mean          =  -1.0998362978574E-19
(PID.TID 0000.0001) // =======================================================
(PID.TID 0000.0001) // End MONITOR dynamic field statistics
(PID.TID 0000.0001) // =======================================================
 cg2d: Sum(rhs),rhsMax =   1.27742306550878E-04  7.58147041037703E-03
 cg2d: Sum(rhs),rhsMax =   1.27761009566409E-04  7.58264183615676E-03
 cg2d: Sum(rhs),rhsMax =   1.27779752128124E-04  7.58381345651491E-03
 cg2d: Sum(rhs),rhsMax =   1.27798548684096E-04  7.58498527237377E-03
 cg2d: Sum(rhs),rhsMax =   1.27817377127790E-04  7.58615728565241E-03
 cg2d: Sum(rhs),rhsMax =   1.27836264406517E-04  7.58732949616888E-03
 cg2d: Sum(rhs),rhsMax =   1.27855217182044E-04  7.58850190411631E-03
 cg2d: Sum(rhs),rhsMax =   1.27874163397120E-04  7.58967450860973E-03
 cg2d: Sum(rhs),rhsMax =   1.27893197891463E-04  7.59084731096592E-03
 cg2d: Sum(rhs),rhsMax =   1.27912220491982E-04  7.59202031002089E-03
 cg2d: Sum(rhs),rhsMax =   1.27931343143077E-04  7.59319350732031E-03
 cg2d: Sum(rhs),rhsMax =   1.27950464131311E-04  7.59436690051586E-03
 cg2d: Sum(rhs),rhsMax =   1.27969648435144E-04  7.59554049386238E-03
 cg2d: Sum(rhs),rhsMax =   1.27988888000109E-04  7.59671428283880E-03
 cg2d: Sum(rhs),rhsMax =   1.28008179141476E-04  7.59788827090621E-03
 cg2d: Sum(rhs),rhsMax =   1.28027516692548E-04  7.59906245620233E-03
 cg2d: Sum(rhs),rhsMax =   1.28046905143279E-04  7.60023684117424E-03
 cg2d: Sum(rhs),rhsMax =   1.28066334337904E-04  7.60141142262392E-03
 cg2d: Sum(rhs),rhsMax =   1.28085834275585E-04  7.60258620583179E-03
 cg2d: Sum(rhs),rhsMax =   1.28105348295627E-04  7.60376118571692E-03
 cg2d: Sum(rhs),rhsMax =   1.28124926746814E-04  7.60493636560785E-03
 cg2d: Sum(rhs),rhsMax =   1.28144567789851E-04  7.60611174253922E-03
 cg2d: Sum(rhs),rhsMax =   1.28164248740635E-04  7.60728732135326E-03
 cg2d: Sum(rhs),rhsMax =   1.28184010569953E-04  7.60846309792571E-03
 cg2d: Sum(rhs),rhsMax =   1.28203805296165E-04  7.60963907488357E-03
 cg2d: Sum(rhs),rhsMax =   1.28223631499631E-04  7.61081524944150E-03
 cg2d: Sum(rhs),rhsMax =   1.28243543994646E-04  7.61199162560406E-03
 cg2d: Sum(rhs),rhsMax =   1.28263480410316E-04  7.61316819966439E-03
 cg2d: Sum(rhs),rhsMax =   1.28283491859976E-04  7.61434497507060E-03
 cg2d: Sum(rhs),rhsMax =   1.28303564426848E-04  7.61552194873539E-03
 cg2d: Sum(rhs),rhsMax =   1.28323696104471E-04  7.61669912439337E-03
 cg2d: Sum(rhs),rhsMax =   1.28343846558113E-04  7.61787649692693E-03
 cg2d: Sum(rhs),rhsMax =   1.28364082432979E-04  7.61905407497509E-03
 cg2d: Sum(rhs),rhsMax =   1.28384339682660E-04  7.62023185123197E-03
 cg2d: Sum(rhs),rhsMax =   1.28404667588258E-04  7.62140982966309E-03
 cg2d: Sum(rhs),rhsMax =   1.28425045599285E-04  7.62258800679878E-03
 cg2d: Sum(rhs),rhsMax =   1.28445485734473E-04  7.62376638581928E-03
 cg2d: Sum(rhs),rhsMax =   1.28465984161928E-04  7.62494496417397E-03
 cg2d: Sum(rhs),rhsMax =   1.28486552482251E-04  7.62612374488175E-03
 cg2d: Sum(rhs),rhsMax =   1.28507149766310E-04  7.62730272519534E-03
 cg2d: Sum(rhs),rhsMax =   1.28527829052965E-04  7.62848190791060E-03
 cg2d: Sum(rhs),rhsMax =   1.28548538154888E-04  7.62966129084784E-03
 cg2d: Sum(rhs),rhsMax =   1.28569329558321E-04  7.63084087601222E-03
 cg2d: Sum(rhs),rhsMax =   1.28590175887833E-04  7.63202066242661E-03
 cg2d: Sum(rhs),rhsMax =   1.28611059476738E-04  7.63320065023650E-03
 cg2d: Sum(rhs),rhsMax =   1.28632004253984E-04  7.63438084078636E-03
 cg2d: Sum(rhs),rhsMax =   1.28652973274581E-04  7.63556123372327E-03
 cg2d: Sum(rhs),rhsMax =   1.28674013141731E-04  7.63674182681783E-03
 cg2d: Sum(rhs),rhsMax =   1.28695112065497E-04  7.63792262357084E-03
 cg2d: Sum(rhs),rhsMax =   1.28716269986535E-04  7.63910362108778E-03
 cg2d: Sum(rhs),rhsMax =   1.28737470341219E-04  7.64028482256908E-03
 cg2d: Sum(rhs),rhsMax =   1.28758730791749E-04  7.64146622295128E-03
 cg2d: Sum(rhs),rhsMax =   1.28780056942987E-04  7.64264782669408E-03
 cg2d: Sum(rhs),rhsMax =   1.28801423368502E-04  7.64382963326213E-03
 cg2d: Sum(rhs),rhsMax =   1.28822827662503E-04  7.64501164283873E-03
 cg2d: Sum(rhs),rhsMax =   1.28844297825579E-04  7.64619385462017E-03
 cg2d: Sum(rhs),rhsMax =   1.28865815730799E-04  7.64737626908233E-03
 cg2d: Sum(rhs),rhsMax =   1.28887377087957E-04  7.64855888562878E-03
 cg2d: Sum(rhs),rhsMax =   1.28908992448001E-04  7.64974170595284E-03
 cg2d: Sum(rhs),rhsMax =   1.28930673672192E-04  7.65092472939623E-03
 cg2d: Sum(rhs),rhsMax =   1.28952402144104E-04  7.65210795646679E-03
 cg2d: Sum(rhs),rhsMax =   1.28974191151541E-04  7.65329138460687E-03
 cg2d: Sum(rhs),rhsMax =   1.28996001859929E-04  7.65447501712731E-03
 cg2d: Sum(rhs),rhsMax =   1.29017876002770E-04  7.65565885137201E-03
 cg2d: Sum(rhs),rhsMax =   1.29039797311682E-04  7.65684289031620E-03
 cg2d: Sum(rhs),rhsMax =   1.29061759183626E-04  7.65802713113444E-03
 cg2d: Sum(rhs),rhsMax =   1.29083773586561E-04  7.65921157676423E-03
 cg2d: Sum(rhs),rhsMax =   1.29105815331621E-04  7.66039622434833E-03
 cg2d: Sum(rhs),rhsMax =   1.29127892289503E-04  7.66158107676726E-03
 cg2d: Sum(rhs),rhsMax =   1.29150044085595E-04  7.66276613136331E-03
 cg2d: Sum(rhs),rhsMax =   1.29172186039275E-04  7.66395139057386E-03
 cg2d: Sum(rhs),rhsMax =   1.29194415841671E-04  7.66513685261289E-03
(PID.TID 0000.0001)      cg2d_init_res =   8.98218768913848E-03
(PID.TID 0000.0001)      cg2d_iters(min,last) =      -1     389
(PID.TID 0000.0001)      cg2d_last_res =   9.51365557666042E-08
(PID.TID 0000.0001) // =======================================================
(PID.TID 0000.0001) // Begin MONITOR dynamic field statistics
(PID.TID 0000.0001) // =======================================================
(PID.TID 0000.0001) %MON time_tsnumber                =                  5256
(PID.TID 0000.0001) %MON time_secondsf                =   6.3072000000000E+06
(PID.TID 0000.0001) %MON dynstat_eta_max              =   7.6651988279822E-02
(PID.TID 0000.0001) %MON dynstat_eta_min              =  -1.6188642662783E-01
(PID.TID 0000.0001) %MON dynstat_eta_mean             =  -4.7141310799816E-09
(PID.TID 0000.0001) %MON dynstat_eta_sd               =   6.4136094746773E-02
(PID.TID 0000.0001) %MON dynstat_eta_del2             =   3.7163716364290E-07
(PID.TID 0000.0001) %MON dynstat_uvel_max             =   5.4718336896391E-02
(PID.TID 0000.0001) %MON dynstat_uvel_min             =  -7.6988202895415E-02
(PID.TID 0000.0001) %MON dynstat_uvel_mean            =   9.3220099966626E-08
(PID.TID 0000.0001) %MON dynstat_uvel_sd              =   2.5878886557800E-02
(PID.TID 0000.0001) %MON dynstat_uvel_del2            =   6.6642916238223E-07
(PID.TID 0000.0001) %MON dynstat_vvel_max             =   5.7155980705053E-02
(PID.TID 0000.0001) %MON dynstat_vvel_min             =  -5.3997033305450E-02
(PID.TID 0000.0001) %MON dynstat_vvel_mean            =  -1.9798850100818E-07
(PID.TID 0000.0001) %MON dynstat_vvel_sd              =   2.3348134404746E-02
(PID.TID 0000.0001) %MON dynstat_vvel_del2            =   8.4242168850218E-07
(PID.TID 0000.0001) %MON dynstat_wvel_max             =   1.8497474243632E-08
(PID.TID 0000.0001) %MON dynstat_wvel_min             =  -2.0867222723318E-08
(PID.TID 0000.0001) %MON dynstat_wvel_mean            =  -4.1990179032370E-21
(PID.TID 0000.0001) %MON dynstat_wvel_sd              =   9.4285513378546E-09
(PID.TID 0000.0001) %MON dynstat_wvel_del2            =   7.6004302596793E-14
(PID.TID 0000.0001) %MON dynstat_theta_max            =   2.0000000000000E+01
(PID.TID 0000.0001) %MON dynstat_theta_min            =   2.0000000000000E+01
(PID.TID 0000.0001) %MON dynstat_theta_mean           =   1.9999999999999E+01
(PID.TID 0000.0001) %MON dynstat_theta_sd             =   1.1972645097557E-12
(PID.TID 0000.0001) %MON dynstat_theta_del2           =   0.0000000000000E+00
(PID.TID 0000.0001) %MON dynstat_salt_max             =   3.0000000000000E+01
(PID.TID 0000.0001) %MON dynstat_salt_min             =   3.0000000000000E+01
(PID.TID 0000.0001) %MON dynstat_salt_mean            =   2.9999999999998E+01
(PID.TID 0000.0001) %MON dynstat_salt_sd              =   2.1529444893531E-12
(PID.TID 0000.0001) %MON dynstat_salt_del2            =   0.0000000000000E+00
(PID.TID 0000.0001) %MON trAdv_CFL_u_max              =   1.8474807056711E-02
(PID.TID 0000.0001) %MON trAdv_CFL_v_max              =   1.3714529163718E-02
(PID.TID 0000.0001) %MON trAdv_CFL_w_max              =   4.6166099814227E-09
(PID.TID 0000.0001) %MON advcfl_uvel_max              =   1.8477168694899E-02
(PID.TID 0000.0001) %MON advcfl_vvel_max              =   1.3717435369213E-02
(PID.TID 0000.0001) %MON advcfl_wvel_max              =   1.0016266907193E-08
(PID.TID 0000.0001) %MON advcfl_W_hf_max              =   0.0000000000000E+00
(PID.TID 0000.0001) %MON pe_b_mean                    =   4.2086111472869E-06
(PID.TID 0000.0001) %MON ke_max                       =   2.9636227971945E-03
(PID.TID 0000.0001) %MON ke_mean                      =   6.0469181891928E-04
(PID.TID 0000.0001) %MON ke_vol                       =   7.2529629296391E+15
(PID.TID 0000.0001) %MON vort_r_min                   =  -2.4194626337007E-06
(PID.TID 0000.0001) %MON vort_r_max                   =   2.1288619585157E-06
(PID.TID 0000.0001) %MON vort_a_mean                  =   1.0615000000000E-04
(PID.TID 0000.0001) %MON vort_a_sd                    =   3.5858340066464E-06
(PID.TID 0000.0001) %MON vort_p_mean                  =   1.1210870169429E-04
(PID.TID 0000.0001) %MON vort_p_sd                    =   2.1057417236742E-05
(PID.TID 0000.0001) %MON surfExpan_theta_mean         =  -8.4460677815340E-20
(PID.TID 0000.0001) %MON surfExpan_salt_mean          =  -1.2659237015270E-19
(PID.TID 0000.0001) // =======================================================
(PID.TID 0000.0001) // End MONITOR dynamic field statistics
(PID.TID 0000.0001) // =======================================================
 cg2d: Sum(rhs),rhsMax =   1.29216631086238E-04  7.66632251860976E-03
 cg2d: Sum(rhs),rhsMax =   1.29238899762408E-04  7.66750838859795E-03
 cg2d: Sum(rhs),rhsMax =   1.29261217344820E-04  7.66869446353152E-03
 cg2d: Sum(rhs),rhsMax =   1.29288724686497E-04  7.66988074680211E-03
 cg2d: Sum(rhs),rhsMax =   1.29316231470627E-04  7.67106723082193E-03
 cg2d: Sum(rhs),rhsMax =   1.29343802066045E-04  7.67225391273067E-03
 cg2d: Sum(rhs),rhsMax =   1.29371370902093E-04  7.67344080416991E-03
 cg2d: Sum(rhs),rhsMax =   1.29398954176350E-04  7.67462789566137E-03
 cg2d: Sum(rhs),rhsMax =   1.29426557083178E-04  7.67581519400101E-03
 cg2d: Sum(rhs),rhsMax =   1.29454172066147E-04  7.67700269244637E-03
 cg2d: Sum(rhs),rhsMax =   1.29481808137372E-04  7.67819039978652E-03
 cg2d: Sum(rhs),rhsMax =   1.29509437615159E-04  7.67937830769680E-03
 cg2d: Sum(rhs),rhsMax =   1.29537089143501E-04  7.68056642141578E-03
 cg2d: Sum(rhs),rhsMax =   1.29564749957566E-04  7.68175473846419E-03
 cg2d: Sum(rhs),rhsMax =   1.29592401906225E-04  7.68294326242764E-03
 cg2d: Sum(rhs),rhsMax =   1.29620056879100E-04  7.68413198725008E-03
 cg2d: Sum(rhs),rhsMax =   1.29647691332345E-04  7.68532091811190E-03
 cg2d: Sum(rhs),rhsMax =   1.29675332107513E-04  7.68651005125083E-03
 cg2d: Sum(rhs),rhsMax =   1.29702948492479E-04  7.68769939171616E-03
 cg2d: Sum(rhs),rhsMax =   1.29730553771580E-04  7.68888893518644E-03
 cg2d: Sum(rhs),rhsMax =   1.29758151016815E-04  7.69007868314148E-03
 cg2d: Sum(rhs),rhsMax =   1.29785716269390E-04  7.69126863390064E-03
 cg2d: Sum(rhs),rhsMax =   1.29813259465684E-04  7.69245879160396E-03
 cg2d: Sum(rhs),rhsMax =   1.29840765813456E-04  7.69364915164747E-03
 cg2d: Sum(rhs),rhsMax =   1.29868237117400E-04  7.69483971783715E-03
 cg2d: Sum(rhs),rhsMax =   1.29895677465010E-04  7.69603048623517E-03
 cg2d: Sum(rhs),rhsMax =   1.29923024376663E-04  7.69722146202009E-03
 cg2d: Sum(rhs),rhsMax =   1.29950354050386E-04  7.69841264127039E-03
 cg2d: Sum(rhs),rhsMax =   1.29977594398237E-04  7.69960402493207E-03
 cg2d: Sum(rhs),rhsMax =   1.30004781454896E-04  7.70079561095433E-03
 cg2d: Sum(rhs),rhsMax =   1.30031899270297E-04  7.70198740437249E-03
 cg2d: Sum(rhs),rhsMax =   1.30058910138550E-04  7.70317940154283E-03
 cg2d: Sum(rhs),rhsMax =   1.30085843808643E-04  7.70437160363987E-03
 cg2d: Sum(rhs),rhsMax =   1.30117393282901E-04  7.70556401212984E-03
 cg2d: Sum(rhs),rhsMax =   1.30148811749376E-04  7.70675662501032E-03
 cg2d: Sum(rhs),rhsMax =   1.30180073034073E-04  7.70794943766087E-03
 cg2d: Sum(rhs),rhsMax =   1.30211174758415E-04  7.70914245655943E-03
 cg2d: Sum(rhs),rhsMax =   1.30242123502653E-04  7.71033567922957E-03
 cg2d: Sum(rhs),rhsMax =   1.30272882369561E-04  7.71152910744510E-03
 cg2d: Sum(rhs),rhsMax =   1.30303441550932E-04  7.71272273955827E-03
 cg2d: Sum(rhs),rhsMax =   1.30333752883525E-04  7.71391657575335E-03
 cg2d: Sum(rhs),rhsMax =   1.30369251852063E-04  7.71511060500589E-03
 cg2d: Sum(rhs),rhsMax =   1.30404439776824E-04  7.71630485003183E-03
 cg2d: Sum(rhs),rhsMax =   1.30439323050273E-04  7.71749930222152E-03
 cg2d: Sum(rhs),rhsMax =   1.30473855292363E-04  7.71869395496289E-03
 cg2d: Sum(rhs),rhsMax =   1.30508022183074E-04  7.71988881418363E-03
 cg2d: Sum(rhs),rhsMax =   1.30541850151642E-04  7.72108387883019E-03
 cg2d: Sum(rhs),rhsMax =   1.30579986662099E-04  7.72227914670996E-03
 cg2d: Sum(rhs),rhsMax =   1.30617616309915E-04  7.72347461997195E-03
 cg2d: Sum(rhs),rhsMax =   1.30654733085231E-04  7.72467029653403E-03
 cg2d: Sum(rhs),rhsMax =   1.30691249299942E-04  7.72586617748959E-03
 cg2d: Sum(rhs),rhsMax =   1.30732467221574E-04  7.72706227151597E-03
 cg2d: Sum(rhs),rhsMax =   1.30772936891893E-04  7.72825856043867E-03
 cg2d: Sum(rhs),rhsMax =   1.30817337795436E-04  7.72945505820552E-03
 cg2d: Sum(rhs),rhsMax =   1.30860765559895E-04  7.73065175624116E-03
 cg2d: Sum(rhs),rhsMax =   1.30903189693446E-04  7.73184865703384E-03
 cg2d: Sum(rhs),rhsMax =   1.30944546040664E-04  7.73304576213556E-03
 cg2d: Sum(rhs),rhsMax =   1.30984790621678E-04  7.73424307097934E-03
 cg2d: Sum(rhs),rhsMax =   1.31033378489319E-04  7.73544056744559E-03
 cg2d: Sum(rhs),rhsMax =   1.31080401903106E-04  7.73663828519862E-03
 cg2d: Sum(rhs),rhsMax =   1.31125765896341E-04  7.73783620613912E-03
 cg2d: Sum(rhs),rhsMax =   1.31179166972307E-04  7.73903434780595E-03
 cg2d: Sum(rhs),rhsMax =   1.31230332355270E-04  7.74023267678160E-03
 cg2d: Sum(rhs),rhsMax =   1.31279164724623E-04  7.74143120859574E-03
 cg2d: Sum(rhs),rhsMax =   1.31335320719446E-04  7.74262992896148E-03
 cg2d: Sum(rhs),rhsMax =   1.31388463926611E-04  7.74382886794931E-03
 cg2d: Sum(rhs),rhsMax =   1.31438501796837E-04  7.74502801150349E-03
 cg2d: Sum(rhs),rhsMax =   1.31498754900385E-04  7.74622737786386E-03
 cg2d: Sum(rhs),rhsMax =   1.31577992159911E-04  7.74742692808404E-03
 cg2d: Sum(rhs),rhsMax =   1.31664236878886E-04  7.74862666261900E-03
 cg2d: Sum(rhs),rhsMax =   1.31743692807354E-04  7.74982662125843E-03
 cg2d: Sum(rhs),rhsMax =   1.31828596450547E-04  7.75102679932562E-03
(PID.TID 0000.0001)      cg2d_init_res =   8.81817405631348E-03
(PID.TID 0000.0001)      cg2d_iters(min,last) =      -1     363
(PID.TID 0000.0001)      cg2d_last_res =   9.47352879377370E-08
(PID.TID 0000.0001) // =======================================================
(PID.TID 0000.0001) // Begin MONITOR dynamic field statistics
(PID.TID 0000.0001) // =======================================================
(PID.TID 0000.0001) %MON time_tsnumber                =                  5328
(PID.TID 0000.0001) %MON time_secondsf                =   6.3936000000000E+06
(PID.TID 0000.0001) %MON dynstat_eta_max              =   7.7207499684435E-02
(PID.TID 0000.0001) %MON dynstat_eta_min              =  -1.6366964592388E-01
(PID.TID 0000.0001) %MON dynstat_eta_mean             =  -4.8661744925240E-09
(PID.TID 0000.0001) %MON dynstat_eta_sd               =   6.4784029807391E-02
(PID.TID 0000.0001) %MON dynstat_eta_del2             =   3.7476255677676E-07
(PID.TID 0000.0001) %MON dynstat_uvel_max             =   5.4718682505907E-02
(PID.TID 0000.0001) %MON dynstat_uvel_min             =  -7.7692367772029E-02
(PID.TID 0000.0001) %MON dynstat_uvel_mean            =   1.1177287294111E-07
(PID.TID 0000.0001) %MON dynstat_uvel_sd              =   2.6096324394702E-02
(PID.TID 0000.0001) %MON dynstat_uvel_del2            =   6.6898919196662E-07
(PID.TID 0000.0001) %MON dynstat_vvel_max             =   5.8026249122034E-02
(PID.TID 0000.0001) %MON dynstat_vvel_min             =  -5.4492926556100E-02
(PID.TID 0000.0001) %MON dynstat_vvel_mean            =  -2.0984414017767E-07
(PID.TID 0000.0001) %MON dynstat_vvel_sd              =   2.3617441656782E-02
(PID.TID 0000.0001) %MON dynstat_vvel_del2            =   8.5057768699586E-07
(PID.TID 0000.0001) %MON dynstat_wvel_max             =   1.7309173725662E-08
(PID.TID 0000.0001) %MON dynstat_wvel_min             =  -2.0587036841316E-08
(PID.TID 0000.0001) %MON dynstat_wvel_mean            =   4.1283717044658E-21
(PID.TID 0000.0001) %MON dynstat_wvel_sd              =   9.3639648589928E-09
(PID.TID 0000.0001) %MON dynstat_wvel_del2            =   7.5424733433868E-14
(PID.TID 0000.0001) %MON dynstat_theta_max            =   2.0000000000000E+01
(PID.TID 0000.0001) %MON dynstat_theta_min            =   2.0000000000000E+01
(PID.TID 0000.0001) %MON dynstat_theta_mean           =   1.9999999999999E+01
(PID.TID 0000.0001) %MON dynstat_theta_sd             =   1.1972645097557E-12
(PID.TID 0000.0001) %MON dynstat_theta_del2           =   0.0000000000000E+00
(PID.TID 0000.0001) %MON dynstat_salt_max             =   3.0000000000000E+01
(PID.TID 0000.0001) %MON dynstat_salt_min             =   3.0000000000000E+01
(PID.TID 0000.0001) %MON dynstat_salt_mean            =   2.9999999999998E+01
(PID.TID 0000.0001) %MON dynstat_salt_sd              =   2.1529444893531E-12
(PID.TID 0000.0001) %MON dynstat_salt_del2            =   0.0000000000000E+00
(PID.TID 0000.0001) %MON trAdv_CFL_u_max              =   1.8643834906048E-02
(PID.TID 0000.0001) %MON trAdv_CFL_v_max              =   1.3923416519182E-02
(PID.TID 0000.0001) %MON trAdv_CFL_w_max              =   4.3141905152166E-09
(PID.TID 0000.0001) %MON advcfl_uvel_max              =   1.8646168265287E-02
(PID.TID 0000.0001) %MON advcfl_vvel_max              =   1.3926299789288E-02
(PID.TID 0000.0001) %MON advcfl_wvel_max              =   9.8817776838318E-09
(PID.TID 0000.0001) %MON advcfl_W_hf_max              =   0.0000000000000E+00
(PID.TID 0000.0001) %MON pe_b_mean                    =   4.2940756901686E-06
(PID.TID 0000.0001) %MON ke_max                       =   3.0180790064779E-03
(PID.TID 0000.0001) %MON ke_mean                      =   6.1661268974504E-04
(PID.TID 0000.0001) %MON ke_vol                       =   7.2529629296391E+15
(PID.TID 0000.0001) %MON vort_r_min                   =  -2.4466741998080E-06
(PID.TID 0000.0001) %MON vort_r_max                   =   2.1649874638972E-06
(PID.TID 0000.0001) %MON vort_a_mean                  =   1.0615000000000E-04
(PID.TID 0000.0001) %MON vort_a_sd                    =   3.5861653925842E-06
(PID.TID 0000.0001) %MON vort_p_mean                  =   1.1210870169429E-04
(PID.TID 0000.0001) %MON vort_p_sd                    =   2.1057500135134E-05
(PID.TID 0000.0001) %MON surfExpan_theta_mean         =   8.2418904215903E-20
(PID.TID 0000.0001) %MON surfExpan_salt_mean          =   1.2373626451274E-19
(PID.TID 0000.0001) // =======================================================
(PID.TID 0000.0001) // End MONITOR dynamic field statistics
(PID.TID 0000.0001) // =======================================================
 cg2d: Sum(rhs),rhsMax =   1.31906153334866E-04  7.75222716323701E-03
 cg2d: Sum(rhs),rhsMax =   1.31976631406772E-04  7.75342772863991E-03
 cg2d: Sum(rhs),rhsMax =   1.32040314850632E-04  7.75462849795005E-03
 cg2d: Sum(rhs),rhsMax =   1.32111344740231E-04  7.75582945027644E-03
 cg2d: Sum(rhs),rhsMax =   1.32175394505039E-04  7.75703062627143E-03
 cg2d: Sum(rhs),rhsMax =   1.32232887405380E-04  7.75823200436988E-03
 cg2d: Sum(rhs),rhsMax =   1.32299431907739E-04  7.75943360054389E-03
 cg2d: Sum(rhs),rhsMax =   1.32359683641538E-04  7.76063538244598E-03
 cg2d: Sum(rhs),rhsMax =   1.32414227914970E-04  7.76183736959158E-03
 cg2d: Sum(rhs),rhsMax =   1.32466166378568E-04  7.76303956092866E-03
 cg2d: Sum(rhs),rhsMax =   1.32513535572362E-04  7.76424195325036E-03
 cg2d: Sum(rhs),rhsMax =   1.32557017028144E-04  7.76544454583362E-03
 cg2d: Sum(rhs),rhsMax =   1.32597267736985E-04  7.76664734307935E-03
 cg2d: Sum(rhs),rhsMax =   1.32634952652158E-04  7.76785034031975E-03
 cg2d: Sum(rhs),rhsMax =   1.32670715820443E-04  7.76905354184786E-03
 cg2d: Sum(rhs),rhsMax =   1.32705238820674E-04  7.77025694358972E-03
 cg2d: Sum(rhs),rhsMax =   1.32739179389738E-04  7.77146054913740E-03
 cg2d: Sum(rhs),rhsMax =   1.32773212021105E-04  7.77266435497901E-03
 cg2d: Sum(rhs),rhsMax =   1.32808007393509E-04  7.77386836416810E-03
 cg2d: Sum(rhs),rhsMax =   1.32844208716146E-04  7.77507257410092E-03
 cg2d: Sum(rhs),rhsMax =   1.32882476058350E-04  7.77627698657844E-03
 cg2d: Sum(rhs),rhsMax =   1.32923437774049E-04  7.77748159741280E-03
 cg2d: Sum(rhs),rhsMax =   1.32967752597394E-04  7.77868641451537E-03
 cg2d: Sum(rhs),rhsMax =   1.33016014925573E-04  7.77989142900866E-03
 cg2d: Sum(rhs),rhsMax =   1.33068865556649E-04  7.78109664822881E-03
 cg2d: Sum(rhs),rhsMax =   1.33124230942382E-04  7.78230206208154E-03
 cg2d: Sum(rhs),rhsMax =   1.33185227573576E-04  7.78350768078939E-03
 cg2d: Sum(rhs),rhsMax =   1.33252381351091E-04  7.78471350027279E-03
 cg2d: Sum(rhs),rhsMax =   1.33310306596748E-04  7.78591950566979E-03
 cg2d: Sum(rhs),rhsMax =   1.33374562948685E-04  7.78712572584952E-03
 cg2d: Sum(rhs),rhsMax =   1.33445556937385E-04  7.78833214892452E-03
 cg2d: Sum(rhs),rhsMax =   1.33508799948290E-04  7.78953879155036E-03
 cg2d: Sum(rhs),rhsMax =   1.33578453568728E-04  7.79074561565390E-03
 cg2d: Sum(rhs),rhsMax =   1.33654820488141E-04  7.79195264010009E-03
 cg2d: Sum(rhs),rhsMax =   1.33738085457988E-04  7.79315986340033E-03
 cg2d: Sum(rhs),rhsMax =   1.33815267525418E-04  7.79436726647134E-03
 cg2d: Sum(rhs),rhsMax =   1.33898751020893E-04  7.79557488872770E-03
 cg2d: Sum(rhs),rhsMax =   1.33974773600884E-04  7.79678273157997E-03
 cg2d: Sum(rhs),rhsMax =   1.34056287029423E-04  7.79799075252436E-03
 cg2d: Sum(rhs),rhsMax =   1.34117801019835E-04  7.79919897533539E-03
 cg2d: Sum(rhs),rhsMax =   1.34168899701117E-04  7.80040737750494E-03
 cg2d: Sum(rhs),rhsMax =   1.34222885158365E-04  7.80161599722462E-03
 cg2d: Sum(rhs),rhsMax =   1.34279709298406E-04  7.80282481647355E-03
 cg2d: Sum(rhs),rhsMax =   1.34339281646654E-04  7.80403383374038E-03
 cg2d: Sum(rhs),rhsMax =   1.34391166361244E-04  7.80524306789209E-03
 cg2d: Sum(rhs),rhsMax =   1.34445193324264E-04  7.80645248296330E-03
 cg2d: Sum(rhs),rhsMax =   1.34501314231778E-04  7.80766209730497E-03
 cg2d: Sum(rhs),rhsMax =   1.34559371252506E-04  7.80887190625520E-03
 cg2d: Sum(rhs),rhsMax =   1.34609004093705E-04  7.81008190257288E-03
 cg2d: Sum(rhs),rhsMax =   1.34660145407439E-04  7.81129211205988E-03
 cg2d: Sum(rhs),rhsMax =   1.34712728250150E-04  7.81250251847503E-03
 cg2d: Sum(rhs),rhsMax =   1.34766728707137E-04  7.81371312209432E-03
 cg2d: Sum(rhs),rhsMax =   1.34822058405300E-04  7.81492392363515E-03
 cg2d: Sum(rhs),rhsMax =   1.34868314179965E-04  7.81613494046648E-03
 cg2d: Sum(rhs),rhsMax =   1.34915545184137E-04  7.81734613681248E-03
 cg2d: Sum(rhs),rhsMax =   1.34963762042924E-04  7.81855753082911E-03
 cg2d: Sum(rhs),rhsMax =   1.35012859508568E-04  7.81976912152416E-03
 cg2d: Sum(rhs),rhsMax =   1.35062848918874E-04  7.82098090957569E-03
 cg2d: Sum(rhs),rhsMax =   1.35113664019507E-04  7.82219289461092E-03
 cg2d: Sum(rhs),rhsMax =   1.35165320048488E-04  7.82340507503285E-03
 cg2d: Sum(rhs),rhsMax =   1.35212686817273E-04  7.82461744624108E-03
 cg2d: Sum(rhs),rhsMax =   1.35260680496303E-04  7.82583002077304E-03
 cg2d: Sum(rhs),rhsMax =   1.35309365931042E-04  7.82704278713920E-03
 cg2d: Sum(rhs),rhsMax =   1.35352927172392E-04  7.82825574291646E-03
 cg2d: Sum(rhs),rhsMax =   1.35397033438271E-04  7.82946890631886E-03
 cg2d: Sum(rhs),rhsMax =   1.35441647176164E-04  7.83068226285954E-03
 cg2d: Sum(rhs),rhsMax =   1.35486747956835E-04  7.83189581536194E-03
 cg2d: Sum(rhs),rhsMax =   1.35532325652963E-04  7.83310956163436E-03
 cg2d: Sum(rhs),rhsMax =   1.35578349627670E-04  7.83432350448609E-03
 cg2d: Sum(rhs),rhsMax =   1.35624826835348E-04  7.83553764054877E-03
 cg2d: Sum(rhs),rhsMax =   1.35666525534397E-04  7.83675197030398E-03
 cg2d: Sum(rhs),rhsMax =   1.35708583773593E-04  7.83796649682018E-03
(PID.TID 0000.0001)      cg2d_init_res =   8.65953538523698E-03
(PID.TID 0000.0001)      cg2d_iters(min,last) =      -1     386
(PID.TID 0000.0001)      cg2d_last_res =   9.75361169247393E-08
(PID.TID 0000.0001) // =======================================================
(PID.TID 0000.0001) // Begin MONITOR dynamic field statistics
(PID.TID 0000.0001) // =======================================================
(PID.TID 0000.0001) %MON time_tsnumber                =                  5400
(PID.TID 0000.0001) %MON time_secondsf                =   6.4800000000000E+06
(PID.TID 0000.0001) %MON dynstat_eta_max              =   7.7856000127779E-02
(PID.TID 0000.0001) %MON dynstat_eta_min              =  -1.6543597533962E-01
(PID.TID 0000.0001) %MON dynstat_eta_mean             =  -5.0641901413619E-09
(PID.TID 0000.0001) %MON dynstat_eta_sd               =   6.5424945839097E-02
(PID.TID 0000.0001) %MON dynstat_eta_del2             =   3.7794719605072E-07
(PID.TID 0000.0001) %MON dynstat_uvel_max             =   5.4777206827157E-02
(PID.TID 0000.0001) %MON dynstat_uvel_min             =  -7.8388173184662E-02
(PID.TID 0000.0001) %MON dynstat_uvel_mean            =   1.2589181280328E-07
(PID.TID 0000.0001) %MON dynstat_uvel_sd              =   2.6318485397195E-02
(PID.TID 0000.0001) %MON dynstat_uvel_del2            =   6.7200836028218E-07
(PID.TID 0000.0001) %MON dynstat_vvel_max             =   5.8881490075093E-02
(PID.TID 0000.0001) %MON dynstat_vvel_min             =  -5.4978513896584E-02
(PID.TID 0000.0001) %MON dynstat_vvel_mean            =  -2.2349384605730E-07
(PID.TID 0000.0001) %MON dynstat_vvel_sd              =   2.3879604621275E-02
(PID.TID 0000.0001) %MON dynstat_vvel_del2            =   8.5880526811776E-07
(PID.TID 0000.0001) %MON dynstat_wvel_max             =   1.8453105230583E-08
(PID.TID 0000.0001) %MON dynstat_wvel_min             =  -2.0360650071525E-08
(PID.TID 0000.0001) %MON dynstat_wvel_mean            =  -1.7668792165804E-22
(PID.TID 0000.0001) %MON dynstat_wvel_sd              =   9.3009726543241E-09
(PID.TID 0000.0001) %MON dynstat_wvel_del2            =   7.4889753401232E-14
(PID.TID 0000.0001) %MON dynstat_theta_max            =   2.0000000000000E+01
(PID.TID 0000.0001) %MON dynstat_theta_min            =   2.0000000000000E+01
(PID.TID 0000.0001) %MON dynstat_theta_mean           =   1.9999999999999E+01
(PID.TID 0000.0001) %MON dynstat_theta_sd             =   1.1972645097557E-12
(PID.TID 0000.0001) %MON dynstat_theta_del2           =   0.0000000000000E+00
(PID.TID 0000.0001) %MON dynstat_salt_max             =   3.0000000000000E+01
(PID.TID 0000.0001) %MON dynstat_salt_min             =   3.0000000000000E+01
(PID.TID 0000.0001) %MON dynstat_salt_mean            =   2.9999999999998E+01
(PID.TID 0000.0001) %MON dynstat_salt_sd              =   2.1529444893531E-12
(PID.TID 0000.0001) %MON dynstat_salt_del2            =   0.0000000000000E+00
(PID.TID 0000.0001) %MON trAdv_CFL_u_max              =   1.8810855774005E-02
(PID.TID 0000.0001) %MON trAdv_CFL_v_max              =   1.4128737655534E-02
(PID.TID 0000.0001) %MON trAdv_CFL_w_max              =   4.6649730224482E-09
(PID.TID 0000.0001) %MON advcfl_uvel_max              =   1.8813161564319E-02
(PID.TID 0000.0001) %MON advcfl_vvel_max              =   1.4131557618022E-02
(PID.TID 0000.0001) %MON advcfl_wvel_max              =   9.7731120343320E-09
(PID.TID 0000.0001) %MON advcfl_W_hf_max              =   0.0000000000000E+00
(PID.TID 0000.0001) %MON pe_b_mean                    =   4.3794595599750E-06
(PID.TID 0000.0001) %MON ke_max                       =   3.0723812814942E-03
(PID.TID 0000.0001) %MON ke_mean                      =   6.2860670257949E-04
(PID.TID 0000.0001) %MON ke_vol                       =   7.2529629296391E+15
(PID.TID 0000.0001) %MON vort_r_min                   =  -2.4742306215273E-06
(PID.TID 0000.0001) %MON vort_r_max                   =   2.2030247519080E-06
(PID.TID 0000.0001) %MON vort_a_mean                  =   1.0615000000000E-04
(PID.TID 0000.0001) %MON vort_a_sd                    =   3.5865090762165E-06
(PID.TID 0000.0001) %MON vort_p_mean                  =   1.1210870169429E-04
(PID.TID 0000.0001) %MON vort_p_sd                    =   2.1057576126850E-05
(PID.TID 0000.0001) %MON surfExpan_theta_mean         =  -3.8887053696416E-21
(PID.TID 0000.0001) %MON surfExpan_salt_mean          =  -5.7431284484087E-21
(PID.TID 0000.0001) // =======================================================
(PID.TID 0000.0001) // End MONITOR dynamic field statistics
(PID.TID 0000.0001) // =======================================================
 cg2d: Sum(rhs),rhsMax =   1.35751042780200E-04  7.83918121651552E-03
 cg2d: Sum(rhs),rhsMax =   1.35793780289120E-04  7.84039613075039E-03
 cg2d: Sum(rhs),rhsMax =   1.35836855340007E-04  7.84161124044746E-03
 cg2d: Sum(rhs),rhsMax =   1.35880268251823E-04  7.84282654271271E-03
 cg2d: Sum(rhs),rhsMax =   1.35923982957528E-04  7.84404203864874E-03
 cg2d: Sum(rhs),rhsMax =   1.35967987912735E-04  7.84525772572874E-03
 cg2d: Sum(rhs),rhsMax =   1.36012284992638E-04  7.84647360913732E-03
 cg2d: Sum(rhs),rhsMax =   1.36056850771115E-04  7.84768968369512E-03
 cg2d: Sum(rhs),rhsMax =   1.36101689456525E-04  7.84890595359888E-03
 cg2d: Sum(rhs),rhsMax =   1.36146812364571E-04  7.85012241315302E-03
 cg2d: Sum(rhs),rhsMax =   1.36186212891330E-04  7.85133908017787E-03
 cg2d: Sum(rhs),rhsMax =   1.36225844745735E-04  7.85255592559965E-03
 cg2d: Sum(rhs),rhsMax =   1.36265693289672E-04  7.85377296303363E-03
 cg2d: Sum(rhs),rhsMax =   1.36305731060844E-04  7.85499019247278E-03
 cg2d: Sum(rhs),rhsMax =   1.36346005098018E-04  7.85620761205688E-03
 cg2d: Sum(rhs),rhsMax =   1.36386461476731E-04  7.85742522395549E-03
 cg2d: Sum(rhs),rhsMax =   1.36427139499117E-04  7.85864302637551E-03
 cg2d: Sum(rhs),rhsMax =   1.36467975266508E-04  7.85986102044854E-03
 cg2d: Sum(rhs),rhsMax =   1.36509012770233E-04  7.86107920464077E-03
 cg2d: Sum(rhs),rhsMax =   1.36550227094515E-04  7.86229757946519E-03
 cg2d: Sum(rhs),rhsMax =   1.36591616971000E-04  7.86351614495357E-03
 cg2d: Sum(rhs),rhsMax =   1.36633145725026E-04  7.86473489970248E-03
 cg2d: Sum(rhs),rhsMax =   1.36674841164908E-04  7.86595384510450E-03
 cg2d: Sum(rhs),rhsMax =   1.36716730091826E-04  7.86717298093462E-03
 cg2d: Sum(rhs),rhsMax =   1.36758784689227E-04  7.86839230501726E-03
 cg2d: Sum(rhs),rhsMax =   1.36800988312254E-04  7.86961181951125E-03
 cg2d: Sum(rhs),rhsMax =   1.36843367530058E-04  7.87083152162969E-03
 cg2d: Sum(rhs),rhsMax =   1.36885885727606E-04  7.87205141388937E-03
 cg2d: Sum(rhs),rhsMax =   1.36928527761255E-04  7.87327149274361E-03
 cg2d: Sum(rhs),rhsMax =   1.36971344276865E-04  7.87449176262167E-03
 cg2d: Sum(rhs),rhsMax =   1.37008950944103E-04  7.87571221394512E-03
 cg2d: Sum(rhs),rhsMax =   1.37046677419424E-04  7.87693285919758E-03
 cg2d: Sum(rhs),rhsMax =   1.37084552305055E-04  7.87815369029190E-03
 cg2d: Sum(rhs),rhsMax =   1.37122537384462E-04  7.87937471052832E-03
 cg2d: Sum(rhs),rhsMax =   1.37160668247248E-04  7.88059591664751E-03
 cg2d: Sum(rhs),rhsMax =   1.37198905605151E-04  7.88181731051748E-03
 cg2d: Sum(rhs),rhsMax =   1.37237261578244E-04  7.88303889021827E-03
 cg2d: Sum(rhs),rhsMax =   1.37275739531857E-04  7.88426065662459E-03
 cg2d: Sum(rhs),rhsMax =   1.37314319978698E-04  7.88548260904217E-03
 cg2d: Sum(rhs),rhsMax =   1.37353058262114E-04  7.88670474724735E-03
 cg2d: Sum(rhs),rhsMax =   1.37391870603713E-04  7.88792707126704E-03
 cg2d: Sum(rhs),rhsMax =   1.37430813490129E-04  7.88914958093828E-03
 cg2d: Sum(rhs),rhsMax =   1.37469848465330E-04  7.89037227554163E-03
 cg2d: Sum(rhs),rhsMax =   1.37508967386250E-04  7.89159515666046E-03
 cg2d: Sum(rhs),rhsMax =   1.37548217983314E-04  7.89281821939735E-03
 cg2d: Sum(rhs),rhsMax =   1.37587563026420E-04  7.89404146889851E-03
 cg2d: Sum(rhs),rhsMax =   1.37627038990566E-04  7.89526490114300E-03
 cg2d: Sum(rhs),rhsMax =   1.37666600582758E-04  7.89648851882140E-03
 cg2d: Sum(rhs),rhsMax =   1.37706273381941E-04  7.89771231824482E-03
 cg2d: Sum(rhs),rhsMax =   1.37746038115945E-04  7.89893630331443E-03
 cg2d: Sum(rhs),rhsMax =   1.37785902263905E-04  7.90016047002464E-03
 cg2d: Sum(rhs),rhsMax =   1.37825859378641E-04  7.90138482072678E-03
 cg2d: Sum(rhs),rhsMax =   1.37865922591416E-04  7.90260935202421E-03
 cg2d: Sum(rhs),rhsMax =   1.37906079488982E-04  7.90383406819843E-03
 cg2d: Sum(rhs),rhsMax =   1.37946332077350E-04  7.90505896456434E-03
 cg2d: Sum(rhs),rhsMax =   1.37986681468260E-04  7.90628404429281E-03
 cg2d: Sum(rhs),rhsMax =   1.38027112438365E-04  7.90750930443414E-03
 cg2d: Sum(rhs),rhsMax =   1.38067632597289E-04  7.90873474640690E-03
 cg2d: Sum(rhs),rhsMax =   1.38108288437603E-04  7.90996036725514E-03
 cg2d: Sum(rhs),rhsMax =   1.38148999511372E-04  7.91118617170767E-03
 cg2d: Sum(rhs),rhsMax =   1.38189838605962E-04  7.91241215483291E-03
 cg2d: Sum(rhs),rhsMax =   1.38230754256759E-04  7.91363831937503E-03
 cg2d: Sum(rhs),rhsMax =   1.38271787103362E-04  7.91486466216772E-03
 cg2d: Sum(rhs),rhsMax =   1.38312878235833E-04  7.91609118655368E-03
 cg2d: Sum(rhs),rhsMax =   1.38354073149942E-04  7.91731788801835E-03
 cg2d: Sum(rhs),rhsMax =   1.38395352077896E-04  7.91854477067551E-03
 cg2d: Sum(rhs),rhsMax =   1.38436721258783E-04  7.91977182968024E-03
 cg2d: Sum(rhs),rhsMax =   1.38478178634664E-04  7.92099906981060E-03
 cg2d: Sum(rhs),rhsMax =   1.38519741062073E-04  7.92222648592134E-03
 cg2d: Sum(rhs),rhsMax =   1.38561356423316E-04  7.92345408169147E-03
 cg2d: Sum(rhs),rhsMax =   1.38603087142666E-04  7.92468185247877E-03
 cg2d: Sum(rhs),rhsMax =   1.38644891577059E-04  7.92590980314026E-03
(PID.TID 0000.0001)      cg2d_init_res =   8.50886732576871E-03
(PID.TID 0000.0001)      cg2d_iters(min,last) =      -1     388
(PID.TID 0000.0001)      cg2d_last_res =   9.69279843649738E-08
(PID.TID 0000.0001) // =======================================================
(PID.TID 0000.0001) // Begin MONITOR dynamic field statistics
(PID.TID 0000.0001) // =======================================================
(PID.TID 0000.0001) %MON time_tsnumber                =                  5472
(PID.TID 0000.0001) %MON time_secondsf                =   6.5664000000000E+06
(PID.TID 0000.0001) %MON dynstat_eta_max              =   7.8730822591573E-02
(PID.TID 0000.0001) %MON dynstat_eta_min              =  -1.6718778491290E-01
(PID.TID 0000.0001) %MON dynstat_eta_mean             =  -5.2317582467161E-09
(PID.TID 0000.0001) %MON dynstat_eta_sd               =   6.6059252021939E-02
(PID.TID 0000.0001) %MON dynstat_eta_del2             =   3.8119610971566E-07
(PID.TID 0000.0001) %MON dynstat_uvel_max             =   5.4918697112011E-02
(PID.TID 0000.0001) %MON dynstat_uvel_min             =  -7.9075732262262E-02
(PID.TID 0000.0001) %MON dynstat_uvel_mean            =   1.3471771921752E-07
(PID.TID 0000.0001) %MON dynstat_uvel_sd              =   2.6547203709079E-02
(PID.TID 0000.0001) %MON dynstat_uvel_del2            =   6.7551718895797E-07
(PID.TID 0000.0001) %MON dynstat_vvel_max             =   5.9719403554145E-02
(PID.TID 0000.0001) %MON dynstat_vvel_min             =  -5.5466367148378E-02
(PID.TID 0000.0001) %MON dynstat_vvel_mean            =  -2.3816267967279E-07
(PID.TID 0000.0001) %MON dynstat_vvel_sd              =   2.4133104001705E-02
(PID.TID 0000.0001) %MON dynstat_vvel_del2            =   8.6703998499401E-07
(PID.TID 0000.0001) %MON dynstat_wvel_max             =   1.9883659873158E-08
(PID.TID 0000.0001) %MON dynstat_wvel_min             =  -2.0212784083560E-08
(PID.TID 0000.0001) %MON dynstat_wvel_mean            =   4.1148903947727E-21
(PID.TID 0000.0001) %MON dynstat_wvel_sd              =   9.2362653942246E-09
(PID.TID 0000.0001) %MON dynstat_wvel_del2            =   7.4363233576294E-14
(PID.TID 0000.0001) %MON dynstat_theta_max            =   2.0000000000000E+01
(PID.TID 0000.0001) %MON dynstat_theta_min            =   2.0000000000000E+01
(PID.TID 0000.0001) %MON dynstat_theta_mean           =   1.9999999999999E+01
(PID.TID 0000.0001) %MON dynstat_theta_sd             =   1.1972645097557E-12
(PID.TID 0000.0001) %MON dynstat_theta_del2           =   0.0000000000000E+00
(PID.TID 0000.0001) %MON dynstat_salt_max             =   3.0000000000000E+01
(PID.TID 0000.0001) %MON dynstat_salt_min             =   3.0000000000000E+01
(PID.TID 0000.0001) %MON dynstat_salt_mean            =   2.9999999999998E+01
(PID.TID 0000.0001) %MON dynstat_salt_sd              =   2.1529444893531E-12
(PID.TID 0000.0001) %MON dynstat_salt_del2            =   0.0000000000000E+00
(PID.TID 0000.0001) %MON trAdv_CFL_u_max              =   1.8975897471163E-02
(PID.TID 0000.0001) %MON trAdv_CFL_v_max              =   1.4329886633598E-02
(PID.TID 0000.0001) %MON trAdv_CFL_w_max              =   5.0342819070245E-09
(PID.TID 0000.0001) %MON advcfl_uvel_max              =   1.8978175742943E-02
(PID.TID 0000.0001) %MON advcfl_vvel_max              =   1.4332656852995E-02
(PID.TID 0000.0001) %MON advcfl_wvel_max              =   9.7021363601089E-09
(PID.TID 0000.0001) %MON advcfl_W_hf_max              =   0.0000000000000E+00
(PID.TID 0000.0001) %MON pe_b_mean                    =   4.4647904514274E-06
(PID.TID 0000.0001) %MON ke_max                       =   3.1265209100808E-03
(PID.TID 0000.0001) %MON ke_mean                      =   6.4068336664289E-04
(PID.TID 0000.0001) %MON ke_vol                       =   7.2529629296391E+15
(PID.TID 0000.0001) %MON vort_r_min                   =  -2.5021270718567E-06
(PID.TID 0000.0001) %MON vort_r_max                   =   2.2419185363545E-06
(PID.TID 0000.0001) %MON vort_a_mean                  =   1.0615000000000E-04
(PID.TID 0000.0001) %MON vort_a_sd                    =   3.5868659508452E-06
(PID.TID 0000.0001) %MON vort_p_mean                  =   1.1210870169429E-04
(PID.TID 0000.0001) %MON vort_p_sd                    =   2.1057644329076E-05
(PID.TID 0000.0001) %MON surfExpan_theta_mean         =   8.1635616444554E-20
(PID.TID 0000.0001) %MON surfExpan_salt_mean          =   1.2264641575744E-19
(PID.TID 0000.0001) // =======================================================
(PID.TID 0000.0001) // End MONITOR dynamic field statistics
(PID.TID 0000.0001) // =======================================================
 cg2d: Sum(rhs),rhsMax =   1.38686799027564E-04  7.92713792863233E-03
 cg2d: Sum(rhs),rhsMax =   1.38728794544313E-04  7.92836623292017E-03
 cg2d: Sum(rhs),rhsMax =   1.38770840206252E-04  7.92959471069817E-03
 cg2d: Sum(rhs),rhsMax =   1.38812997598162E-04  7.93082336782353E-03
 cg2d: Sum(rhs),rhsMax =   1.38855238352959E-04  7.93205219792744E-03
 cg2d: Sum(rhs),rhsMax =   1.38897554521924E-04  7.93328120626529E-03
 cg2d: Sum(rhs),rhsMax =   1.38939977432447E-04  7.93451038661867E-03
 cg2d: Sum(rhs),rhsMax =   1.38982470840680E-04  7.93573974481603E-03
 cg2d: Sum(rhs),rhsMax =   1.39025047442865E-04  7.93696927537250E-03
 cg2d: Sum(rhs),rhsMax =   1.39067711445907E-04  7.93819898239152E-03
 cg2d: Sum(rhs),rhsMax =   1.39110436641608E-04  7.93942885978356E-03
 cg2d: Sum(rhs),rhsMax =   1.39153280347906E-04  7.94065891445387E-03
 cg2d: Sum(rhs),rhsMax =   1.39196178853850E-04  7.94188913944550E-03
 cg2d: Sum(rhs),rhsMax =   1.39239188826693E-04  7.94311953935302E-03
 cg2d: Sum(rhs),rhsMax =   1.39282278631556E-04  7.94435010927882E-03
 cg2d: Sum(rhs),rhsMax =   1.39325452661179E-04  7.94558085549651E-03
 cg2d: Sum(rhs),rhsMax =   1.39368708274332E-04  7.94681177011371E-03
 cg2d: Sum(rhs),rhsMax =   1.39412054156605E-04  7.94804285978785E-03
 cg2d: Sum(rhs),rhsMax =   1.39455457621054E-04  7.94927411857002E-03
 cg2d: Sum(rhs),rhsMax =   1.39498982259180E-04  7.95050555002813E-03
 cg2d: Sum(rhs),rhsMax =   1.39542557062684E-04  7.95173714828258E-03
 cg2d: Sum(rhs),rhsMax =   1.39586230759355E-04  7.95296892147216E-03
 cg2d: Sum(rhs),rhsMax =   1.39629974206808E-04  7.95420086175881E-03
 cg2d: Sum(rhs),rhsMax =   1.39673808502406E-04  7.95543297402264E-03
 cg2d: Sum(rhs),rhsMax =   1.39717722903514E-04  7.95666525234623E-03
 cg2d: Sum(rhs),rhsMax =   1.39761728651797E-04  7.95789770322790E-03
 cg2d: Sum(rhs),rhsMax =   1.39805810701702E-04  7.95913031930576E-03
 cg2d: Sum(rhs),rhsMax =   1.39849981346023E-04  7.96036310789015E-03
 cg2d: Sum(rhs),rhsMax =   1.39894216867300E-04  7.96159606050168E-03
 cg2d: Sum(rhs),rhsMax =   1.39938546103967E-04  7.96282918453474E-03
 cg2d: Sum(rhs),rhsMax =   1.39982950546005E-04  7.96406247293591E-03
 cg2d: Sum(rhs),rhsMax =   1.40027415639276E-04  7.96529593107724E-03
 cg2d: Sum(rhs),rhsMax =   1.40071980792357E-04  7.96652955139523E-03
 cg2d: Sum(rhs),rhsMax =   1.40116618708398E-04  7.96776334292002E-03
 cg2d: Sum(rhs),rhsMax =   1.40161354581040E-04  7.96899729701520E-03
 cg2d: Sum(rhs),rhsMax =   1.40206156631678E-04  7.97023141902801E-03
 cg2d: Sum(rhs),rhsMax =   1.40251055334464E-04  7.97146570339447E-03
 cg2d: Sum(rhs),rhsMax =   1.40296037905571E-04  7.97270015631355E-03
 cg2d: Sum(rhs),rhsMax =   1.40341081103510E-04  7.97393477114793E-03
 cg2d: Sum(rhs),rhsMax =   1.40386224072191E-04  7.97516955178750E-03
 cg2d: Sum(rhs),rhsMax =   1.40431451619334E-04  7.97640449355117E-03
 cg2d: Sum(rhs),rhsMax =   1.40476745509880E-04  7.97763960187205E-03
 cg2d: Sum(rhs),rhsMax =   1.40522125865222E-04  7.97887487017195E-03
 cg2d: Sum(rhs),rhsMax =   1.40567591782126E-04  7.98011030516248E-03
 cg2d: Sum(rhs),rhsMax =   1.40613127319790E-04  7.98134589784229E-03
 cg2d: Sum(rhs),rhsMax =   1.40658741635533E-04  7.98258165719645E-03
 cg2d: Sum(rhs),rhsMax =   1.40704438946888E-04  7.98381757390099E-03
 cg2d: Sum(rhs),rhsMax =   1.40750209236767E-04  7.98505365629667E-03
 cg2d: Sum(rhs),rhsMax =   1.40796065233637E-04  7.98628989490024E-03
 cg2d: Sum(rhs),rhsMax =   1.40841997118377E-04  7.98752629874349E-03
 cg2d: Sum(rhs),rhsMax =   1.40888022039758E-04  7.98876285781207E-03
 cg2d: Sum(rhs),rhsMax =   1.40934096209570E-04  7.98999958177892E-03
 cg2d: Sum(rhs),rhsMax =   1.40980271130395E-04  7.99123645997846E-03
 cg2d: Sum(rhs),rhsMax =   1.41026548919452E-04  7.99247350241679E-03
 cg2d: Sum(rhs),rhsMax =   1.41072873126858E-04  7.99371069795959E-03
 cg2d: Sum(rhs),rhsMax =   1.41119259663839E-04  7.99494805652450E-03
 cg2d: Sum(rhs),rhsMax =   1.41165738383508E-04  7.99618556956336E-03
 cg2d: Sum(rhs),rhsMax =   1.41212301052619E-04  7.99742324472346E-03
 cg2d: Sum(rhs),rhsMax =   1.41258948137296E-04  7.99866107092205E-03
 cg2d: Sum(rhs),rhsMax =   1.41305648881455E-04  7.99989905970039E-03
 cg2d: Sum(rhs),rhsMax =   1.41352465296540E-04  8.00113719908264E-03
 cg2d: Sum(rhs),rhsMax =   1.41399331545859E-04  8.00237550015881E-03
 cg2d: Sum(rhs),rhsMax =   1.41446283941127E-04  8.00361395075120E-03
 cg2d: Sum(rhs),rhsMax =   1.41493298820640E-04  8.00485256269763E-03
 cg2d: Sum(rhs),rhsMax =   1.41540384809699E-04  8.00609132363168E-03
 cg2d: Sum(rhs),rhsMax =   1.41587574105003E-04  8.00733024418936E-03
 cg2d: Sum(rhs),rhsMax =   1.41634813603384E-04  8.00856931355317E-03
 cg2d: Sum(rhs),rhsMax =   1.41682153003749E-04  8.00980854190218E-03
 cg2d: Sum(rhs),rhsMax =   1.41729550623127E-04  8.01104791779997E-03
 cg2d: Sum(rhs),rhsMax =   1.41777037378964E-04  8.01228745235275E-03
 cg2d: Sum(rhs),rhsMax =   1.41824559386359E-04  8.01352713405713E-03
 cg2d: Sum(rhs),rhsMax =   1.41872180970152E-04  8.01476697239172E-03
(PID.TID 0000.0001)      cg2d_init_res =   8.36782875944455E-03
(PID.TID 0000.0001)      cg2d_iters(min,last) =      -1     388
(PID.TID 0000.0001)      cg2d_last_res =   9.75494553715437E-08
(PID.TID 0000.0001) // =======================================================
(PID.TID 0000.0001) // Begin MONITOR dynamic field statistics
(PID.TID 0000.0001) // =======================================================
(PID.TID 0000.0001) %MON time_tsnumber                =                  5544
(PID.TID 0000.0001) %MON time_secondsf                =   6.6528000000000E+06
(PID.TID 0000.0001) %MON dynstat_eta_max              =   7.9901310171563E-02
(PID.TID 0000.0001) %MON dynstat_eta_min              =  -1.6892767238109E-01
(PID.TID 0000.0001) %MON dynstat_eta_mean             =  -5.4137406700857E-09
(PID.TID 0000.0001) %MON dynstat_eta_sd               =   6.6687423442397E-02
(PID.TID 0000.0001) %MON dynstat_eta_del2             =   3.8451269033749E-07
(PID.TID 0000.0001) %MON dynstat_uvel_max             =   5.5182243858785E-02
(PID.TID 0000.0001) %MON dynstat_uvel_min             =  -7.9754958850026E-02
(PID.TID 0000.0001) %MON dynstat_uvel_mean            =   1.3766682043815E-07
(PID.TID 0000.0001) %MON dynstat_uvel_sd              =   2.6783897613372E-02
(PID.TID 0000.0001) %MON dynstat_uvel_del2            =   6.7951984740770E-07
(PID.TID 0000.0001) %MON dynstat_vvel_max             =   6.0543021692899E-02
(PID.TID 0000.0001) %MON dynstat_vvel_min             =  -5.5947250379669E-02
(PID.TID 0000.0001) %MON dynstat_vvel_mean            =  -2.5297571739688E-07
(PID.TID 0000.0001) %MON dynstat_vvel_sd              =   2.4376860526841E-02
(PID.TID 0000.0001) %MON dynstat_vvel_del2            =   8.7524734502591E-07
(PID.TID 0000.0001) %MON dynstat_wvel_max             =   2.1216914791148E-08
(PID.TID 0000.0001) %MON dynstat_wvel_min             =  -2.0156813825015E-08
(PID.TID 0000.0001) %MON dynstat_wvel_mean            =   9.3669231453527E-22
(PID.TID 0000.0001) %MON dynstat_wvel_sd              =   9.1662824574817E-09
(PID.TID 0000.0001) %MON dynstat_wvel_del2            =   7.3892461641870E-14
(PID.TID 0000.0001) %MON dynstat_theta_max            =   2.0000000000000E+01
(PID.TID 0000.0001) %MON dynstat_theta_min            =   2.0000000000000E+01
(PID.TID 0000.0001) %MON dynstat_theta_mean           =   1.9999999999999E+01
(PID.TID 0000.0001) %MON dynstat_theta_sd             =   1.1972645097557E-12
(PID.TID 0000.0001) %MON dynstat_theta_del2           =   0.0000000000000E+00
(PID.TID 0000.0001) %MON dynstat_salt_max             =   3.0000000000000E+01
(PID.TID 0000.0001) %MON dynstat_salt_min             =   3.0000000000000E+01
(PID.TID 0000.0001) %MON dynstat_salt_mean            =   2.9999999999998E+01
(PID.TID 0000.0001) %MON dynstat_salt_sd              =   2.1529444893531E-12
(PID.TID 0000.0001) %MON dynstat_salt_del2            =   0.0000000000000E+00
(PID.TID 0000.0001) %MON trAdv_CFL_u_max              =   1.9138939984404E-02
(PID.TID 0000.0001) %MON trAdv_CFL_v_max              =   1.4527602430110E-02
(PID.TID 0000.0001) %MON trAdv_CFL_w_max              =   5.3797332905646E-09
(PID.TID 0000.0001) %MON advcfl_uvel_max              =   1.9141190124006E-02
(PID.TID 0000.0001) %MON advcfl_vvel_max              =   1.4530325206296E-02
(PID.TID 0000.0001) %MON advcfl_wvel_max              =   1.0184119099751E-08
(PID.TID 0000.0001) %MON advcfl_W_hf_max              =   0.0000000000000E+00
(PID.TID 0000.0001) %MON pe_b_mean                    =   4.5501074569041E-06
(PID.TID 0000.0001) %MON ke_max                       =   3.1804737251437E-03
(PID.TID 0000.0001) %MON ke_mean                      =   6.5285222578537E-04
(PID.TID 0000.0001) %MON ke_vol                       =   7.2529629296391E+15
(PID.TID 0000.0001) %MON vort_r_min                   =  -2.5303439314953E-06
(PID.TID 0000.0001) %MON vort_r_max                   =   2.2812384181735E-06
(PID.TID 0000.0001) %MON vort_a_mean                  =   1.0615000000000E-04
(PID.TID 0000.0001) %MON vort_a_sd                    =   3.5872366547146E-06
(PID.TID 0000.0001) %MON vort_p_mean                  =   1.1210870169429E-04
(PID.TID 0000.0001) %MON vort_p_sd                    =   2.1057704397236E-05
(PID.TID 0000.0001) %MON surfExpan_theta_mean         =   1.8692022173809E-20
(PID.TID 0000.0001) %MON surfExpan_salt_mean          =   2.7974460609043E-20
(PID.TID 0000.0001) // =======================================================
(PID.TID 0000.0001) // End MONITOR dynamic field statistics
(PID.TID 0000.0001) // =======================================================
 cg2d: Sum(rhs),rhsMax =   1.41919880155220E-04  8.01600695635120E-03
 cg2d: Sum(rhs),rhsMax =   1.41967657088564E-04  8.01724709808835E-03
 cg2d: Sum(rhs),rhsMax =   1.42015489013330E-04  8.01848738444676E-03
 cg2d: Sum(rhs),rhsMax =   1.42063400011501E-04  8.01972782731708E-03
 cg2d: Sum(rhs),rhsMax =   1.42111402582181E-04  8.02096841462552E-03
 cg2d: Sum(rhs),rhsMax =   1.42159447564769E-04  8.02220915698552E-03
 cg2d: Sum(rhs),rhsMax =   1.42207587241917E-04  8.02345004246072E-03
 cg2d: Sum(rhs),rhsMax =   1.42255772589963E-04  8.02469108287578E-03
 cg2d: Sum(rhs),rhsMax =   1.42304058174402E-04  8.02593226478674E-03
 cg2d: Sum(rhs),rhsMax =   1.42352412032651E-04  8.02717360101111E-03
 cg2d: Sum(rhs),rhsMax =   1.42400840136130E-04  8.02841507872030E-03
 cg2d: Sum(rhs),rhsMax =   1.42449315547690E-04  8.02965670958949E-03
 cg2d: Sum(rhs),rhsMax =   1.42497892006254E-04  8.03089848087631E-03
 cg2d: Sum(rhs),rhsMax =   1.42546505498085E-04  8.03214040448301E-03
 cg2d: Sum(rhs),rhsMax =   1.42595203626403E-04  8.03338246790265E-03
 cg2d: Sum(rhs),rhsMax =   1.42643959351253E-04  8.03462468235416E-03
 cg2d: Sum(rhs),rhsMax =   1.42692797074974E-04  8.03586703541079E-03
 cg2d: Sum(rhs),rhsMax =   1.42741698268998E-04  8.03710953944158E-03
 cg2d: Sum(rhs),rhsMax =   1.42790699652715E-04  8.03835218131767E-03
 cg2d: Sum(rhs),rhsMax =   1.42839710199563E-04  8.03959497319164E-03
 cg2d: Sum(rhs),rhsMax =   1.42888818509585E-04  8.04083790332122E-03
 cg2d: Sum(rhs),rhsMax =   1.42937967545635E-04  8.04208097992616E-03
 cg2d: Sum(rhs),rhsMax =   1.42987202584963E-04  8.04332419298599E-03
 cg2d: Sum(rhs),rhsMax =   1.43036502899260E-04  8.04456755482601E-03
 cg2d: Sum(rhs),rhsMax =   1.43085874560278E-04  8.04581105166590E-03
 cg2d: Sum(rhs),rhsMax =   1.43135305120537E-04  8.04705469582083E-03
 cg2d: Sum(rhs),rhsMax =   1.43184814843300E-04  8.04829847457283E-03
 cg2d: Sum(rhs),rhsMax =   1.43234364826501E-04  8.04954239889511E-03
 cg2d: Sum(rhs),rhsMax =   1.43284000948381E-04  8.05078645830413E-03
 cg2d: Sum(rhs),rhsMax =   1.43333706622150E-04  8.05203066288352E-03
 cg2d: Sum(rhs),rhsMax =   1.43383445233330E-04  8.05327499900409E-03
 cg2d: Sum(rhs),rhsMax =   1.43433248183607E-04  8.05451948006773E-03
 cg2d: Sum(rhs),rhsMax =   1.43483126899461E-04  8.05576409267527E-03
 cg2d: Sum(rhs),rhsMax =   1.43533048416852E-04  8.05700884840719E-03
 cg2d: Sum(rhs),rhsMax =   1.43583062419518E-04  8.05825373540608E-03
 cg2d: Sum(rhs),rhsMax =   1.43633111243418E-04  8.05949876419562E-03
 cg2d: Sum(rhs),rhsMax =   1.43683226843459E-04  8.06074392521097E-03
 cg2d: Sum(rhs),rhsMax =   1.43733420453925E-04  8.06198922678478E-03
 cg2d: Sum(rhs),rhsMax =   1.43783668463363E-04  8.06323465707938E-03
 cg2d: Sum(rhs),rhsMax =   1.43833967840601E-04  8.06448022780521E-03
 cg2d: Sum(rhs),rhsMax =   1.43884329438628E-04  8.06572592674058E-03
 cg2d: Sum(rhs),rhsMax =   1.43934734751114E-04  8.06697176592936E-03
 cg2d: Sum(rhs),rhsMax =   1.43985225716086E-04  8.06821773251513E-03
 cg2d: Sum(rhs),rhsMax =   1.44035760371242E-04  8.06946383805654E-03
 cg2d: Sum(rhs),rhsMax =   1.44086352623888E-04  8.07071006965993E-03
 cg2d: Sum(rhs),rhsMax =   1.44137008199518E-04  8.07195643923475E-03
 cg2d: Sum(rhs),rhsMax =   1.44187728400335E-04  8.07320293505575E-03
 cg2d: Sum(rhs),rhsMax =   1.44238477974496E-04  8.07444956735456E-03
 cg2d: Sum(rhs),rhsMax =   1.44289308526989E-04  8.07569632412590E-03
 cg2d: Sum(rhs),rhsMax =   1.44340207855668E-04  8.07694321642433E-03
 cg2d: Sum(rhs),rhsMax =   1.44391129923340E-04  8.07819023278752E-03
 cg2d: Sum(rhs),rhsMax =   1.44442113183509E-04  8.07943738412666E-03
 cg2d: Sum(rhs),rhsMax =   1.44493137577728E-04  8.08068465783735E-03
 cg2d: Sum(rhs),rhsMax =   1.44544260087113E-04  8.08193206523873E-03
 cg2d: Sum(rhs),rhsMax =   1.44595410303554E-04  8.08317959510736E-03
 cg2d: Sum(rhs),rhsMax =   1.44646592617424E-04  8.08442725708394E-03
 cg2d: Sum(rhs),rhsMax =   1.44697846735362E-04  8.08567504179798E-03
 cg2d: Sum(rhs),rhsMax =   1.44749164280106E-04  8.08692295808615E-03
 cg2d: Sum(rhs),rhsMax =   1.44800542029791E-04  8.08817099325783E-03
 cg2d: Sum(rhs),rhsMax =   1.44851919798643E-04  8.08941916015429E-03
 cg2d: Sum(rhs),rhsMax =   1.44903396630798E-04  8.09066744579087E-03
 cg2d: Sum(rhs),rhsMax =   1.44954907111082E-04  8.09191586075468E-03
 cg2d: Sum(rhs),rhsMax =   1.45006467106133E-04  8.09316439495311E-03
 cg2d: Sum(rhs),rhsMax =   1.45058074664930E-04  8.09441305866941E-03
 cg2d: Sum(rhs),rhsMax =   1.45109740086283E-04  8.09566183790058E-03
 cg2d: Sum(rhs),rhsMax =   1.45161423417077E-04  8.09691074516129E-03
 cg2d: Sum(rhs),rhsMax =   1.45213179226694E-04  8.09815977110047E-03
 cg2d: Sum(rhs),rhsMax =   1.45264975992177E-04  8.09940892210574E-03
 cg2d: Sum(rhs),rhsMax =   1.45316833227964E-04  8.10065818713820E-03
 cg2d: Sum(rhs),rhsMax =   1.45368752039838E-04  8.10190757954409E-03
 cg2d: Sum(rhs),rhsMax =   1.45420712615991E-04  8.10315708566901E-03
 cg2d: Sum(rhs),rhsMax =   1.45472706556491E-04  8.10440671687916E-03
(PID.TID 0000.0001)      cg2d_init_res =   8.23667869975566E-03
(PID.TID 0000.0001)      cg2d_iters(min,last) =      -1     388
(PID.TID 0000.0001)      cg2d_last_res =   9.62154979453971E-08
(PID.TID 0000.0001) // =======================================================
(PID.TID 0000.0001) // Begin MONITOR dynamic field statistics
(PID.TID 0000.0001) // =======================================================
(PID.TID 0000.0001) %MON time_tsnumber                =                  5616
(PID.TID 0000.0001) %MON time_secondsf                =   6.7392000000000E+06
(PID.TID 0000.0001) %MON dynstat_eta_max              =   8.1027656502723E-02
(PID.TID 0000.0001) %MON dynstat_eta_min              =  -1.7065830737417E-01
(PID.TID 0000.0001) %MON dynstat_eta_mean             =  -5.6133383575949E-09
(PID.TID 0000.0001) %MON dynstat_eta_sd               =   6.7309939506930E-02
(PID.TID 0000.0001) %MON dynstat_eta_del2             =   3.8789865816062E-07
(PID.TID 0000.0001) %MON dynstat_uvel_max             =   5.5581706190837E-02
(PID.TID 0000.0001) %MON dynstat_uvel_min             =  -8.0425570977898E-02
(PID.TID 0000.0001) %MON dynstat_uvel_mean            =   1.3446252523213E-07
(PID.TID 0000.0001) %MON dynstat_uvel_sd              =   2.7029488658480E-02
(PID.TID 0000.0001) %MON dynstat_uvel_del2            =   6.8399267676747E-07
(PID.TID 0000.0001) %MON dynstat_vvel_max             =   6.1353920127675E-02
(PID.TID 0000.0001) %MON dynstat_vvel_min             =  -5.6418163110709E-02
(PID.TID 0000.0001) %MON dynstat_vvel_mean            =  -2.6700699182553E-07
(PID.TID 0000.0001) %MON dynstat_vvel_sd              =   2.4610285573333E-02
(PID.TID 0000.0001) %MON dynstat_vvel_del2            =   8.8342048602620E-07
(PID.TID 0000.0001) %MON dynstat_wvel_max             =   2.2421240959084E-08
(PID.TID 0000.0001) %MON dynstat_wvel_min             =  -2.0180430930341E-08
(PID.TID 0000.0001) %MON dynstat_wvel_mean            =   4.2345975475786E-21
(PID.TID 0000.0001) %MON dynstat_wvel_sd              =   9.0879605021672E-09
(PID.TID 0000.0001) %MON dynstat_wvel_del2            =   7.3473473402572E-14
(PID.TID 0000.0001) %MON dynstat_theta_max            =   2.0000000000000E+01
(PID.TID 0000.0001) %MON dynstat_theta_min            =   2.0000000000000E+01
(PID.TID 0000.0001) %MON dynstat_theta_mean           =   1.9999999999999E+01
(PID.TID 0000.0001) %MON dynstat_theta_sd             =   1.1972645097557E-12
(PID.TID 0000.0001) %MON dynstat_theta_del2           =   0.0000000000000E+00
(PID.TID 0000.0001) %MON dynstat_salt_max             =   3.0000000000000E+01
(PID.TID 0000.0001) %MON dynstat_salt_min             =   3.0000000000000E+01
(PID.TID 0000.0001) %MON dynstat_salt_mean            =   2.9999999999998E+01
(PID.TID 0000.0001) %MON dynstat_salt_sd              =   2.1529444893531E-12
(PID.TID 0000.0001) %MON dynstat_salt_del2            =   0.0000000000000E+00
(PID.TID 0000.0001) %MON trAdv_CFL_u_max              =   1.9299916277419E-02
(PID.TID 0000.0001) %MON trAdv_CFL_v_max              =   1.4722255243038E-02
(PID.TID 0000.0001) %MON trAdv_CFL_w_max              =   5.6926708547002E-09
(PID.TID 0000.0001) %MON advcfl_uvel_max              =   1.9302137034695E-02
(PID.TID 0000.0001) %MON advcfl_vvel_max              =   1.4724940830642E-02
(PID.TID 0000.0001) %MON advcfl_wvel_max              =   1.0762195660360E-08
(PID.TID 0000.0001) %MON advcfl_W_hf_max              =   0.0000000000000E+00
(PID.TID 0000.0001) %MON pe_b_mean                    =   4.6354529499451E-06
(PID.TID 0000.0001) %MON ke_max                       =   3.2341997267968E-03
(PID.TID 0000.0001) %MON ke_mean                      =   6.6512220053462E-04
(PID.TID 0000.0001) %MON ke_vol                       =   7.2529629296391E+15
(PID.TID 0000.0001) %MON vort_r_min                   =  -2.5588470067986E-06
(PID.TID 0000.0001) %MON vort_r_max                   =   2.3204017394930E-06
(PID.TID 0000.0001) %MON vort_a_mean                  =   1.0615000000000E-04
(PID.TID 0000.0001) %MON vort_a_sd                    =   3.5876215465667E-06
(PID.TID 0000.0001) %MON vort_p_mean                  =   1.1210870169429E-04
(PID.TID 0000.0001) %MON vort_p_sd                    =   2.1057756546948E-05
(PID.TID 0000.0001) %MON surfExpan_theta_mean         =   8.4751822337334E-20
(PID.TID 0000.0001) %MON surfExpan_salt_mean          =   1.2735292421982E-19
(PID.TID 0000.0001) // =======================================================
(PID.TID 0000.0001) // End MONITOR dynamic field statistics
(PID.TID 0000.0001) // =======================================================
 cg2d: Sum(rhs),rhsMax =   1.45524775224377E-04  8.10565646177542E-03
 cg2d: Sum(rhs),rhsMax =   1.45576841903491E-04  8.10690632988693E-03
 cg2d: Sum(rhs),rhsMax =   1.45628984197167E-04  8.10815631146708E-03
 cg2d: Sum(rhs),rhsMax =   1.45681146407816E-04  8.10940641637835E-03
 cg2d: Sum(rhs),rhsMax =   1.45733368549695E-04  8.11065663066979E-03
 cg2d: Sum(rhs),rhsMax =   1.45785640812211E-04  8.11190696745962E-03
 cg2d: Sum(rhs),rhsMax =   1.45837963521399E-04  8.11315741425906E-03
 cg2d: Sum(rhs),rhsMax =   1.45890311905554E-04  8.11440798176336E-03
 cg2d: Sum(rhs),rhsMax =   1.45942718098221E-04  8.11565865989080E-03
 cg2d: Sum(rhs),rhsMax =   1.45995117969836E-04  8.11690945750262E-03
 cg2d: Sum(rhs),rhsMax =   1.46047618072066E-04  8.11816036243244E-03
 cg2d: Sum(rhs),rhsMax =   1.46100147101024E-04  8.11941138692904E-03
 cg2d: Sum(rhs),rhsMax =   1.46152715348499E-04  8.12066251799329E-03
 cg2d: Sum(rhs),rhsMax =   1.46205329820749E-04  8.12191376738822E-03
 cg2d: Sum(rhs),rhsMax =   1.46257992485962E-04  8.12316512248341E-03
 cg2d: Sum(rhs),rhsMax =   1.46310638218398E-04  8.12441659463417E-03
 cg2d: Sum(rhs),rhsMax =   1.46363389911976E-04  8.12566817174709E-03
 cg2d: Sum(rhs),rhsMax =   1.46416165263216E-04  8.12691986440159E-03
 cg2d: Sum(rhs),rhsMax =   1.46468983181174E-04  8.12817166104140E-03
 cg2d: Sum(rhs),rhsMax =   1.46521832275382E-04  8.12942357269036E-03
 cg2d: Sum(rhs),rhsMax =   1.46574724552683E-04  8.13067558716290E-03
 cg2d: Sum(rhs),rhsMax =   1.46634701441257E-04  8.13192771585310E-03
 cg2d: Sum(rhs),rhsMax =   1.46694710202127E-04  8.13317994931501E-03
 cg2d: Sum(rhs),rhsMax =   1.46754758341316E-04  8.13443229075459E-03
 cg2d: Sum(rhs),rhsMax =   1.46814830412926E-04  8.13568473604103E-03
 cg2d: Sum(rhs),rhsMax =   1.46874948895046E-04  8.13693728970676E-03
 cg2d: Sum(rhs),rhsMax =   1.46935088965952E-04  8.13818994669970E-03
 cg2d: Sum(rhs),rhsMax =   1.46995273406676E-04  8.13944271025556E-03
 cg2d: Sum(rhs),rhsMax =   1.47055495442295E-04  8.14069557640186E-03
 cg2d: Sum(rhs),rhsMax =   1.47115776690422E-04  8.14194854825603E-03
 cg2d: Sum(rhs),rhsMax =   1.47176089890526E-04  8.14320162141342E-03
 cg2d: Sum(rhs),rhsMax =   1.47236449426562E-04  8.14445479914697E-03
 cg2d: Sum(rhs),rhsMax =   1.47296807211324E-04  8.14570807679037E-03
 cg2d: Sum(rhs),rhsMax =   1.47357228175923E-04  8.14696145855176E-03
 cg2d: Sum(rhs),rhsMax =   1.47417700332520E-04  8.14821493945143E-03
 cg2d: Sum(rhs),rhsMax =   1.47478185711949E-04  8.14946852290280E-03
 cg2d: Sum(rhs),rhsMax =   1.47538714411062E-04  8.15072220436795E-03
 cg2d: Sum(rhs),rhsMax =   1.47599302062542E-04  8.15197598740555E-03
 cg2d: Sum(rhs),rhsMax =   1.47659902722301E-04  8.15322986723458E-03
 cg2d: Sum(rhs),rhsMax =   1.47720545330124E-04  8.15448384776056E-03
 cg2d: Sum(rhs),rhsMax =   1.47781186199288E-04  8.15573792390958E-03
 cg2d: Sum(rhs),rhsMax =   1.47841872142562E-04  8.15699209931310E-03
 cg2d: Sum(rhs),rhsMax =   1.47902615793083E-04  8.15824636989417E-03
 cg2d: Sum(rhs),rhsMax =   1.47963381524374E-04  8.15950073787506E-03
 cg2d: Sum(rhs),rhsMax =   1.48024204390078E-04  8.16075520016916E-03
 cg2d: Sum(rhs),rhsMax =   1.48085030152924E-04  8.16200975841912E-03
 cg2d: Sum(rhs),rhsMax =   1.48145906283896E-04  8.16326441090359E-03
 cg2d: Sum(rhs),rhsMax =   1.48206782498678E-04  8.16451915814636E-03
 cg2d: Sum(rhs),rhsMax =   1.48267732071442E-04  8.16577399784354E-03
 cg2d: Sum(rhs),rhsMax =   1.48328690617613E-04  8.16702893122840E-03
 cg2d: Sum(rhs),rhsMax =   1.48389716804892E-04  8.16828395612336E-03
 cg2d: Sum(rhs),rhsMax =   1.48450756665352E-04  8.16953907363940E-03
 cg2d: Sum(rhs),rhsMax =   1.48511839922458E-04  8.17079428160532E-03
 cg2d: Sum(rhs),rhsMax =   1.48572926045171E-04  8.17204958092921E-03
 cg2d: Sum(rhs),rhsMax =   1.48634064272974E-04  8.17330496946138E-03
 cg2d: Sum(rhs),rhsMax =   1.48703609676724E-04  8.17456043407904E-03
 cg2d: Sum(rhs),rhsMax =   1.48773187490771E-04  8.17581600246517E-03
 cg2d: Sum(rhs),rhsMax =   1.48842805840030E-04  8.17707165844685E-03
 cg2d: Sum(rhs),rhsMax =   1.48912459574990E-04  8.17832740251498E-03
 cg2d: Sum(rhs),rhsMax =   1.48982153482595E-04  8.17958323386349E-03
 cg2d: Sum(rhs),rhsMax =   1.49051888621741E-04  8.18083915176173E-03
 cg2d: Sum(rhs),rhsMax =   1.49121614424189E-04  8.18209515606078E-03
 cg2d: Sum(rhs),rhsMax =   1.49191391312989E-04  8.18335124503418E-03
 cg2d: Sum(rhs),rhsMax =   1.49261191853916E-04  8.18460742003048E-03
 cg2d: Sum(rhs),rhsMax =   1.49331053258437E-04  8.18586367762966E-03
 cg2d: Sum(rhs),rhsMax =   1.49400912148167E-04  8.18712002157985E-03
 cg2d: Sum(rhs),rhsMax =   1.49470816586570E-04  8.18837644642448E-03
 cg2d: Sum(rhs),rhsMax =   1.49540738175476E-04  8.18963295676344E-03
 cg2d: Sum(rhs),rhsMax =   1.49610697290564E-04  8.19088954634626E-03
 cg2d: Sum(rhs),rhsMax =   1.49680693201803E-04  8.19214622054442E-03
 cg2d: Sum(rhs),rhsMax =   1.49750711725955E-04  8.19340297253094E-03
 cg2d: Sum(rhs),rhsMax =   1.49820767717248E-04  8.19465980763854E-03
(PID.TID 0000.0001)      cg2d_init_res =   8.11414143023941E-03
(PID.TID 0000.0001)      cg2d_iters(min,last) =      -1     386
(PID.TID 0000.0001)      cg2d_last_res =   9.90701471730262E-08
(PID.TID 0000.0001) // =======================================================
(PID.TID 0000.0001) // Begin MONITOR dynamic field statistics
(PID.TID 0000.0001) // =======================================================
(PID.TID 0000.0001) %MON time_tsnumber                =                  5688
(PID.TID 0000.0001) %MON time_secondsf                =   6.8256000000000E+06
(PID.TID 0000.0001) %MON dynstat_eta_max              =   8.2115830690364E-02
(PID.TID 0000.0001) %MON dynstat_eta_min              =  -1.7238227163686E-01
(PID.TID 0000.0001) %MON dynstat_eta_mean             =  -5.8461343405450E-09
(PID.TID 0000.0001) %MON dynstat_eta_sd               =   6.7927227545383E-02
(PID.TID 0000.0001) %MON dynstat_eta_del2             =   3.9135401227966E-07
(PID.TID 0000.0001) %MON dynstat_uvel_max             =   5.6127147383162E-02
(PID.TID 0000.0001) %MON dynstat_uvel_min             =  -8.1087103842677E-02
(PID.TID 0000.0001) %MON dynstat_uvel_mean            =   1.2515039626815E-07
(PID.TID 0000.0001) %MON dynstat_uvel_sd              =   2.7284344520075E-02
(PID.TID 0000.0001) %MON dynstat_uvel_del2            =   6.8888409825209E-07
(PID.TID 0000.0001) %MON dynstat_vvel_max             =   6.2155430846255E-02
(PID.TID 0000.0001) %MON dynstat_vvel_min             =  -5.6881886702528E-02
(PID.TID 0000.0001) %MON dynstat_vvel_mean            =  -2.7932939706896E-07
(PID.TID 0000.0001) %MON dynstat_vvel_sd              =   2.4833310569992E-02
(PID.TID 0000.0001) %MON dynstat_vvel_del2            =   8.9157513981532E-07
(PID.TID 0000.0001) %MON dynstat_wvel_max             =   2.3478548461571E-08
(PID.TID 0000.0001) %MON dynstat_wvel_min             =  -2.0268327259691E-08
(PID.TID 0000.0001) %MON dynstat_wvel_mean            =  -1.4516639921187E-21
(PID.TID 0000.0001) %MON dynstat_wvel_sd              =   8.9993687318827E-09
(PID.TID 0000.0001) %MON dynstat_wvel_del2            =   7.3146182811661E-14
(PID.TID 0000.0001) %MON dynstat_theta_max            =   2.0000000000000E+01
(PID.TID 0000.0001) %MON dynstat_theta_min            =   2.0000000000000E+01
(PID.TID 0000.0001) %MON dynstat_theta_mean           =   1.9999999999999E+01
(PID.TID 0000.0001) %MON dynstat_theta_sd             =   1.1972645097557E-12
(PID.TID 0000.0001) %MON dynstat_theta_del2           =   0.0000000000000E+00
(PID.TID 0000.0001) %MON dynstat_salt_max             =   3.0000000000000E+01
(PID.TID 0000.0001) %MON dynstat_salt_min             =   3.0000000000000E+01
(PID.TID 0000.0001) %MON dynstat_salt_mean            =   2.9999999999998E+01
(PID.TID 0000.0001) %MON dynstat_salt_sd              =   2.1529444893531E-12
(PID.TID 0000.0001) %MON dynstat_salt_del2            =   0.0000000000000E+00
(PID.TID 0000.0001) %MON trAdv_CFL_u_max              =   1.9458715375544E-02
(PID.TID 0000.0001) %MON trAdv_CFL_v_max              =   1.4914643155566E-02
(PID.TID 0000.0001) %MON trAdv_CFL_w_max              =   5.9660233950412E-09
(PID.TID 0000.0001) %MON advcfl_uvel_max              =   1.9460904922243E-02
(PID.TID 0000.0001) %MON advcfl_vvel_max              =   1.4917303403101E-02
(PID.TID 0000.0001) %MON advcfl_wvel_max              =   1.1269703261554E-08
(PID.TID 0000.0001) %MON advcfl_W_hf_max              =   0.0000000000000E+00
(PID.TID 0000.0001) %MON pe_b_mean                    =   4.7208647162070E-06
(PID.TID 0000.0001) %MON ke_max                       =   3.2876435177804E-03
(PID.TID 0000.0001) %MON ke_mean                      =   6.7750090562536E-04
(PID.TID 0000.0001) %MON ke_vol                       =   7.2529629296391E+15
(PID.TID 0000.0001) %MON vort_r_min                   =  -2.5875883446764E-06
(PID.TID 0000.0001) %MON vort_r_max                   =   2.3591680881236E-06
(PID.TID 0000.0001) %MON vort_a_mean                  =   1.0615000000000E-04
(PID.TID 0000.0001) %MON vort_a_sd                    =   3.5880206805046E-06
(PID.TID 0000.0001) %MON vort_p_mean                  =   1.1210870169429E-04
(PID.TID 0000.0001) %MON vort_p_sd                    =   2.1057801542017E-05
(PID.TID 0000.0001) %MON surfExpan_theta_mean         =  -2.8793263775777E-20
(PID.TID 0000.0001) %MON surfExpan_salt_mean          =  -4.3203083607363E-20
(PID.TID 0000.0001) // =======================================================
(PID.TID 0000.0001) // End MONITOR dynamic field statistics
(PID.TID 0000.0001) // =======================================================
 cg2d: Sum(rhs),rhsMax =   1.49890840491277E-04  8.19591672000506E-03
 cg2d: Sum(rhs),rhsMax =   1.49960943756237E-04  8.19717371377608E-03
 cg2d: Sum(rhs),rhsMax =   1.50031085216152E-04  8.19843078426581E-03
 cg2d: Sum(rhs),rhsMax =   1.50101252770207E-04  8.19968793445779E-03
 cg2d: Sum(rhs),rhsMax =   1.50171417602955E-04  8.20094516030348E-03
 cg2d: Sum(rhs),rhsMax =   1.50241634366650E-04  8.20220246507758E-03
 cg2d: Sum(rhs),rhsMax =   1.50311885085748E-04  8.20345984345055E-03
 cg2d: Sum(rhs),rhsMax =   1.50382174430108E-04  8.20471730152819E-03
 cg2d: Sum(rhs),rhsMax =   1.50452474763214E-04  8.20597482996705E-03
 cg2d: Sum(rhs),rhsMax =   1.50522812920519E-04  8.20723243785169E-03
 cg2d: Sum(rhs),rhsMax =   1.50593172765409E-04  8.20849011522179E-03
 cg2d: Sum(rhs),rhsMax =   1.50663584782305E-04  8.20974786981898E-03
 cg2d: Sum(rhs),rhsMax =   1.50734012266800E-04  8.21100569351264E-03
 cg2d: Sum(rhs),rhsMax =   1.50804470696432E-04  8.21226359298851E-03
 cg2d: Sum(rhs),rhsMax =   1.50874949179414E-04  8.21352156060463E-03
 cg2d: Sum(rhs),rhsMax =   1.50945446386374E-04  8.21477960281918E-03
 cg2d: Sum(rhs),rhsMax =   1.51015976519968E-04  8.21603771185885E-03
 cg2d: Sum(rhs),rhsMax =   1.51086545929680E-04  8.21729589413400E-03
 cg2d: Sum(rhs),rhsMax =   1.51157142185280E-04  8.21855414205936E-03
 cg2d: Sum(rhs),rhsMax =   1.51227753249198E-04  8.21981246179455E-03
 cg2d: Sum(rhs),rhsMax =   1.51298412332843E-04  8.22107084647198E-03
 cg2d: Sum(rhs),rhsMax =   1.51369093154005E-04  8.22232930175339E-03
 cg2d: Sum(rhs),rhsMax =   1.51439780537013E-04  8.22358782056758E-03
 cg2d: Sum(rhs),rhsMax =   1.51510512441293E-04  8.22484640899812E-03
 cg2d: Sum(rhs),rhsMax =   1.51581276867645E-04  8.22610505963181E-03
 cg2d: Sum(rhs),rhsMax =   1.51652066262485E-04  8.22736377870528E-03
 cg2d: Sum(rhs),rhsMax =   1.51722870164591E-04  8.22862255836002E-03
 cg2d: Sum(rhs),rhsMax =   1.51793712029525E-04  8.22988140553045E-03
 cg2d: Sum(rhs),rhsMax =   1.51864588552810E-04  8.23114031243200E-03
 cg2d: Sum(rhs),rhsMax =   1.51935503580183E-04  8.23239928557003E-03
 cg2d: Sum(rhs),rhsMax =   1.52006436478646E-04  8.23365831692767E-03
 cg2d: Sum(rhs),rhsMax =   1.52077384080643E-04  8.23491741348399E-03
 cg2d: Sum(rhs),rhsMax =   1.52148371312439E-04  8.23617656691639E-03
 cg2d: Sum(rhs),rhsMax =   1.52219406360725E-04  8.23743578412598E-03
 cg2d: Sum(rhs),rhsMax =   1.52290459104561E-04  8.23869505741308E-03
 cg2d: Sum(rhs),rhsMax =   1.52361541196236E-04  8.23995439308942E-03
 cg2d: Sum(rhs),rhsMax =   1.52432641517333E-04  8.24121378378512E-03
 cg2d: Sum(rhs),rhsMax =   1.52503759794741E-04  8.24247323566910E-03
 cg2d: Sum(rhs),rhsMax =   1.52574934547905E-04  8.24373274067791E-03
 cg2d: Sum(rhs),rhsMax =   1.52646111993440E-04  8.24499230570387E-03
 cg2d: Sum(rhs),rhsMax =   1.52717332965270E-04  8.24625192313156E-03
 cg2d: Sum(rhs),rhsMax =   1.52788606984630E-04  8.24751159943104E-03
 cg2d: Sum(rhs),rhsMax =   1.52859899933088E-04  8.24877132692902E-03
 cg2d: Sum(rhs),rhsMax =   1.52931227992913E-04  8.25003111189350E-03
 cg2d: Sum(rhs),rhsMax =   1.53002562705378E-04  8.25129094674963E-03
 cg2d: Sum(rhs),rhsMax =   1.53073953488618E-04  8.25255083795767E-03
 cg2d: Sum(rhs),rhsMax =   1.53153383579201E-04  8.25381077918660E-03
 cg2d: Sum(rhs),rhsMax =   1.53232809159543E-04  8.25507077258674E-03
 cg2d: Sum(rhs),rhsMax =   1.53312289698381E-04  8.25633081659826E-03
 cg2d: Sum(rhs),rhsMax =   1.53391812255901E-04  8.25759091060256E-03
 cg2d: Sum(rhs),rhsMax =   1.53471386548804E-04  8.25885105480623E-03
 cg2d: Sum(rhs),rhsMax =   1.53550971746569E-04  8.26011124698368E-03
 cg2d: Sum(rhs),rhsMax =   1.53630583554597E-04  8.26137148897422E-03
 cg2d: Sum(rhs),rhsMax =   1.53710207531636E-04  8.26263177729609E-03
 cg2d: Sum(rhs),rhsMax =   1.53789909181322E-04  8.26389211420311E-03
 cg2d: Sum(rhs),rhsMax =   1.53869619127630E-04  8.26515249717940E-03
 cg2d: Sum(rhs),rhsMax =   1.53949378457176E-04  8.26641292586713E-03
 cg2d: Sum(rhs),rhsMax =   1.54029190824493E-04  8.26767339985473E-03
 cg2d: Sum(rhs),rhsMax =   1.54109026944352E-04  8.26893391789596E-03
 cg2d: Sum(rhs),rhsMax =   1.54188901980100E-04  8.27019448120665E-03
 cg2d: Sum(rhs),rhsMax =   1.54268810378638E-04  8.27145508733726E-03
 cg2d: Sum(rhs),rhsMax =   1.54348757509436E-04  8.27271573588103E-03
 cg2d: Sum(rhs),rhsMax =   1.54428739272031E-04  8.27397642682458E-03
 cg2d: Sum(rhs),rhsMax =   1.54508763302627E-04  8.27523715930050E-03
 cg2d: Sum(rhs),rhsMax =   1.54588831042897E-04  8.27649793254127E-03
 cg2d: Sum(rhs),rhsMax =   1.54668936447000E-04  8.27775874611671E-03
 cg2d: Sum(rhs),rhsMax =   1.54749075514040E-04  8.27901959877506E-03
 cg2d: Sum(rhs),rhsMax =   1.54829266579937E-04  8.28028049146385E-03
 cg2d: Sum(rhs),rhsMax =   1.54909463524620E-04  8.28154142197132E-03
 cg2d: Sum(rhs),rhsMax =   1.54989714814310E-04  8.28280238954998E-03
 cg2d: Sum(rhs),rhsMax =   1.55069992342114E-04  8.28406339402309E-03
 cg2d: Sum(rhs),rhsMax =   1.55150329585204E-04  8.28532443597088E-03
(PID.TID 0000.0001)      cg2d_init_res =   7.99761449440609E-03
(PID.TID 0000.0001)      cg2d_iters(min,last) =      -1     385
(PID.TID 0000.0001)      cg2d_last_res =   9.89620347322769E-08
(PID.TID 0000.0001) // =======================================================
(PID.TID 0000.0001) // Begin MONITOR dynamic field statistics
(PID.TID 0000.0001) // =======================================================
(PID.TID 0000.0001) %MON time_tsnumber                =                  5760
(PID.TID 0000.0001) %MON time_secondsf                =   6.9120000000000E+06
(PID.TID 0000.0001) %MON dynstat_eta_max              =   8.3153832513648E-02
(PID.TID 0000.0001) %MON dynstat_eta_min              =  -1.7410406918390E-01
(PID.TID 0000.0001) %MON dynstat_eta_mean             =  -6.1213805481919E-09
(PID.TID 0000.0001) %MON dynstat_eta_sd               =   6.8539616505980E-02
(PID.TID 0000.0001) %MON dynstat_eta_del2             =   3.9487695989025E-07
(PID.TID 0000.0001) %MON dynstat_uvel_max             =   5.6824454644657E-02
(PID.TID 0000.0001) %MON dynstat_uvel_min             =  -8.1738931869959E-02
(PID.TID 0000.0001) %MON dynstat_uvel_mean            =   1.1009680280919E-07
(PID.TID 0000.0001) %MON dynstat_uvel_sd              =   2.7548249669811E-02
(PID.TID 0000.0001) %MON dynstat_uvel_del2            =   6.9411629194998E-07
(PID.TID 0000.0001) %MON dynstat_vvel_max             =   6.2951279861080E-02
(PID.TID 0000.0001) %MON dynstat_vvel_min             =  -5.7334048102662E-02
(PID.TID 0000.0001) %MON dynstat_vvel_mean            =  -2.8906570982017E-07
(PID.TID 0000.0001) %MON dynstat_vvel_sd              =   2.5046393914728E-02
(PID.TID 0000.0001) %MON dynstat_vvel_del2            =   8.9974250246843E-07
(PID.TID 0000.0001) %MON dynstat_wvel_max             =   2.4357823714381E-08
(PID.TID 0000.0001) %MON dynstat_wvel_min             =  -2.0401456712279E-08
(PID.TID 0000.0001) %MON dynstat_wvel_mean            =  -1.1231530585461E-21
(PID.TID 0000.0001) %MON dynstat_wvel_sd              =   8.9001242138800E-09
(PID.TID 0000.0001) %MON dynstat_wvel_del2            =   7.2874829449587E-14
(PID.TID 0000.0001) %MON dynstat_theta_max            =   2.0000000000000E+01
(PID.TID 0000.0001) %MON dynstat_theta_min            =   2.0000000000000E+01
(PID.TID 0000.0001) %MON dynstat_theta_mean           =   1.9999999999999E+01
(PID.TID 0000.0001) %MON dynstat_theta_sd             =   1.1972645097557E-12
(PID.TID 0000.0001) %MON dynstat_theta_del2           =   0.0000000000000E+00
(PID.TID 0000.0001) %MON dynstat_salt_max             =   3.0000000000000E+01
(PID.TID 0000.0001) %MON dynstat_salt_min             =   3.0000000000000E+01
(PID.TID 0000.0001) %MON dynstat_salt_mean            =   2.9999999999998E+01
(PID.TID 0000.0001) %MON dynstat_salt_sd              =   2.1529444893531E-12
(PID.TID 0000.0001) %MON dynstat_salt_del2            =   0.0000000000000E+00
(PID.TID 0000.0001) %MON trAdv_CFL_u_max              =   1.9615187631146E-02
(PID.TID 0000.0001) %MON trAdv_CFL_v_max              =   1.5105659381562E-02
(PID.TID 0000.0001) %MON trAdv_CFL_w_max              =   6.1947006506985E-09
(PID.TID 0000.0001) %MON advcfl_uvel_max              =   1.9617343648790E-02
(PID.TID 0000.0001) %MON advcfl_vvel_max              =   1.5108307166659E-02
(PID.TID 0000.0001) %MON advcfl_wvel_max              =   1.1691755382903E-08
(PID.TID 0000.0001) %MON advcfl_W_hf_max              =   0.0000000000000E+00
(PID.TID 0000.0001) %MON pe_b_mean                    =   4.8063690796475E-06
(PID.TID 0000.0001) %MON ke_max                       =   3.3407355608954E-03
(PID.TID 0000.0001) %MON ke_mean                      =   6.8999398436281E-04
(PID.TID 0000.0001) %MON ke_vol                       =   7.2529629296391E+15
(PID.TID 0000.0001) %MON vort_r_min                   =  -2.6165076425959E-06
(PID.TID 0000.0001) %MON vort_r_max                   =   2.3973548188464E-06
(PID.TID 0000.0001) %MON vort_a_mean                  =   1.0615000000000E-04
(PID.TID 0000.0001) %MON vort_a_sd                    =   3.5884337808821E-06
(PID.TID 0000.0001) %MON vort_p_mean                  =   1.1210870169429E-04
(PID.TID 0000.0001) %MON vort_p_sd                    =   2.1057840649735E-05
(PID.TID 0000.0001) %MON surfExpan_theta_mean         =  -2.2123663202830E-20
(PID.TID 0000.0001) %MON surfExpan_salt_mean          =  -3.3118202476147E-20
(PID.TID 0000.0001) // =======================================================
(PID.TID 0000.0001) // End MONITOR dynamic field statistics
(PID.TID 0000.0001) // =======================================================
 cg2d: Sum(rhs),rhsMax =   1.55230701507832E-04  8.28658551331536E-03
 cg2d: Sum(rhs),rhsMax =   1.55311129473014E-04  8.28784662586820E-03
 cg2d: Sum(rhs),rhsMax =   1.55391593992832E-04  8.28910777277303E-03
 cg2d: Sum(rhs),rhsMax =   1.55472095621216E-04  8.29036895316125E-03
 cg2d: Sum(rhs),rhsMax =   1.55552653287228E-04  8.29163016689397E-03
 cg2d: Sum(rhs),rhsMax =   1.55633246129777E-04  8.29289141313291E-03
 cg2d: Sum(rhs),rhsMax =   1.55713883303862E-04  8.29415269127773E-03
 cg2d: Sum(rhs),rhsMax =   1.55794573019665E-04  8.29541400083388E-03
 cg2d: Sum(rhs),rhsMax =   1.55875270577869E-04  8.29667534016982E-03
 cg2d: Sum(rhs),rhsMax =   1.55956032376475E-04  8.29793671120040E-03
 cg2d: Sum(rhs),rhsMax =   1.56036863517370E-04  8.29919811089460E-03
 cg2d: Sum(rhs),rhsMax =   1.56117721278000E-04  8.30045953885899E-03
 cg2d: Sum(rhs),rhsMax =   1.56198624245315E-04  8.30172099489596E-03
 cg2d: Sum(rhs),rhsMax =   1.56279574950345E-04  8.30298247876225E-03
 cg2d: Sum(rhs),rhsMax =   1.56360579780209E-04  8.30424398917396E-03
 cg2d: Sum(rhs),rhsMax =   1.56441635172483E-04  8.30550552574631E-03
 cg2d: Sum(rhs),rhsMax =   1.56522682613874E-04  8.30676708639765E-03
 cg2d: Sum(rhs),rhsMax =   1.56603820517316E-04  8.30802867452349E-03
 cg2d: Sum(rhs),rhsMax =   1.56684999881584E-04  8.30929028527375E-03
 cg2d: Sum(rhs),rhsMax =   1.56766235074343E-04  8.31055191924544E-03
 cg2d: Sum(rhs),rhsMax =   1.56847512530834E-04  8.31181357504087E-03
 cg2d: Sum(rhs),rhsMax =   1.56928862834338E-04  8.31307525491230E-03
 cg2d: Sum(rhs),rhsMax =   1.57010252813158E-04  8.31433695583505E-03
 cg2d: Sum(rhs),rhsMax =   1.57091687003879E-04  8.31559867838549E-03
 cg2d: Sum(rhs),rhsMax =   1.57173171852447E-04  8.31686042033271E-03
 cg2d: Sum(rhs),rhsMax =   1.57254711018536E-04  8.31812218250891E-03
 cg2d: Sum(rhs),rhsMax =   1.57336283243102E-04  8.31938396259123E-03
 cg2d: Sum(rhs),rhsMax =   1.57417927976267E-04  8.32064576170837E-03
 cg2d: Sum(rhs),rhsMax =   1.57499643883166E-04  8.32190757760036E-03
 cg2d: Sum(rhs),rhsMax =   1.57581392388714E-04  8.32316941086936E-03
 cg2d: Sum(rhs),rhsMax =   1.57663188776644E-04  8.32443126053425E-03
 cg2d: Sum(rhs),rhsMax =   1.57745006809132E-04  8.32569312539036E-03
 cg2d: Sum(rhs),rhsMax =   1.57826899414888E-04  8.32695500611589E-03
 cg2d: Sum(rhs),rhsMax =   1.57908846421716E-04  8.32821690053043E-03
 cg2d: Sum(rhs),rhsMax =   1.57990869315722E-04  8.32947880906290E-03
 cg2d: Sum(rhs),rhsMax =   1.58072933726439E-04  8.33074072998531E-03
 cg2d: Sum(rhs),rhsMax =   1.58155062222042E-04  8.33200266399600E-03
 cg2d: Sum(rhs),rhsMax =   1.58237250594759E-04  8.33326460916505E-03
 cg2d: Sum(rhs),rhsMax =   1.58319474846154E-04  8.33452656584078E-03
 cg2d: Sum(rhs),rhsMax =   1.58401749213690E-04  8.33578853217336E-03
 cg2d: Sum(rhs),rhsMax =   1.58484078014710E-04  8.33705050906355E-03
 cg2d: Sum(rhs),rhsMax =   1.58566482440652E-04  8.33831249437182E-03
 cg2d: Sum(rhs),rhsMax =   1.58648951980592E-04  8.33957448814687E-03
 cg2d: Sum(rhs),rhsMax =   1.58731467247260E-04  8.34083648932199E-03
 cg2d: Sum(rhs),rhsMax =   1.58814045738804E-04  8.34209849817784E-03
 cg2d: Sum(rhs),rhsMax =   1.58896694160911E-04  8.34336051301426E-03
 cg2d: Sum(rhs),rhsMax =   1.58979372129026E-04  8.34462253384359E-03
 cg2d: Sum(rhs),rhsMax =   1.59062122015960E-04  8.34588455908026E-03
 cg2d: Sum(rhs),rhsMax =   1.59144959000254E-04  8.34714658950009E-03
 cg2d: Sum(rhs),rhsMax =   1.59227816887396E-04  8.34840862298627E-03
 cg2d: Sum(rhs),rhsMax =   1.59310768643896E-04  8.34967066050991E-03
 cg2d: Sum(rhs),rhsMax =   1.59393738639690E-04  8.35093269988369E-03
 cg2d: Sum(rhs),rhsMax =   1.59476808597401E-04  8.35219474077117E-03
 cg2d: Sum(rhs),rhsMax =   1.59559904619458E-04  8.35345678177842E-03
 cg2d: Sum(rhs),rhsMax =   1.59643083646846E-04  8.35471882525808E-03
 cg2d: Sum(rhs),rhsMax =   1.59726304522415E-04  8.35598086764546E-03
 cg2d: Sum(rhs),rhsMax =   1.59809600186800E-04  8.35724290879312E-03
 cg2d: Sum(rhs),rhsMax =   1.59892957377323E-04  8.35850494750155E-03
 cg2d: Sum(rhs),rhsMax =   1.59976376330230E-04  8.35976698544530E-03
 cg2d: Sum(rhs),rhsMax =   1.60059856676274E-04  8.36102901965356E-03
 cg2d: Sum(rhs),rhsMax =   1.60143431756412E-04  8.36229105029028E-03
 cg2d: Sum(rhs),rhsMax =   1.60227035459497E-04  8.36355307650464E-03
 cg2d: Sum(rhs),rhsMax =   1.60310699101445E-04  8.36481509823223E-03
 cg2d: Sum(rhs),rhsMax =   1.60394455987090E-04  8.36607711385091E-03
 cg2d: Sum(rhs),rhsMax =   1.60478274896946E-04  8.36733912315273E-03
 cg2d: Sum(rhs),rhsMax =   1.60562130167212E-04  8.36860112466057E-03
 cg2d: Sum(rhs),rhsMax =   1.60646067627966E-04  8.36986312020109E-03
 cg2d: Sum(rhs),rhsMax =   1.60730030705984E-04  8.37112510691794E-03
 cg2d: Sum(rhs),rhsMax =   1.60814078191577E-04  8.37238708369115E-03
 cg2d: Sum(rhs),rhsMax =   1.60898199504473E-04  8.37364905075042E-03
 cg2d: Sum(rhs),rhsMax =   1.60982420298753E-04  8.37491100841252E-03
 cg2d: Sum(rhs),rhsMax =   1.61066666394399E-04  8.37617295462682E-03
(PID.TID 0000.0001)      cg2d_init_res =   7.88365908691909E-03
(PID.TID 0000.0001)      cg2d_iters(min,last) =      -1     385
(PID.TID 0000.0001)      cg2d_last_res =   9.88785768452232E-08
(PID.TID 0000.0001) // =======================================================
(PID.TID 0000.0001) // Begin MONITOR dynamic field statistics
(PID.TID 0000.0001) // =======================================================
(PID.TID 0000.0001) %MON time_tsnumber                =                  5832
(PID.TID 0000.0001) %MON time_secondsf                =   6.9984000000000E+06
(PID.TID 0000.0001) %MON dynstat_eta_max              =   8.4142665258206E-02
(PID.TID 0000.0001) %MON dynstat_eta_min              =  -1.7582964303494E-01
(PID.TID 0000.0001) %MON dynstat_eta_mean             =  -6.4245123876555E-09
(PID.TID 0000.0001) %MON dynstat_eta_sd               =   6.9147304134979E-02
(PID.TID 0000.0001) %MON dynstat_eta_del2             =   3.9846382789271E-07
(PID.TID 0000.0001) %MON dynstat_uvel_max             =   5.7655295899919E-02
(PID.TID 0000.0001) %MON dynstat_uvel_min             =  -8.2380299169612E-02
(PID.TID 0000.0001) %MON dynstat_uvel_mean            =   8.9971349059765E-08
(PID.TID 0000.0001) %MON dynstat_uvel_sd              =   2.7820406645077E-02
(PID.TID 0000.0001) %MON dynstat_uvel_del2            =   6.9958887545238E-07
(PID.TID 0000.0001) %MON dynstat_vvel_max             =   6.3747097701909E-02
(PID.TID 0000.0001) %MON dynstat_vvel_min             =  -5.7774826946972E-02
(PID.TID 0000.0001) %MON dynstat_vvel_mean            =  -2.9543728087036E-07
(PID.TID 0000.0001) %MON dynstat_vvel_sd              =   2.5250504164173E-02
(PID.TID 0000.0001) %MON dynstat_vvel_del2            =   9.0796083580656E-07
(PID.TID 0000.0001) %MON dynstat_wvel_max             =   2.5037717196392E-08
(PID.TID 0000.0001) %MON dynstat_wvel_min             =  -2.0560870009940E-08
(PID.TID 0000.0001) %MON dynstat_wvel_mean            =  -5.1224065132355E-21
(PID.TID 0000.0001) %MON dynstat_wvel_sd              =   8.7915266658902E-09
(PID.TID 0000.0001) %MON dynstat_wvel_del2            =   7.2628007746925E-14
(PID.TID 0000.0001) %MON dynstat_theta_max            =   2.0000000000000E+01
(PID.TID 0000.0001) %MON dynstat_theta_min            =   2.0000000000000E+01
(PID.TID 0000.0001) %MON dynstat_theta_mean           =   1.9999999999999E+01
(PID.TID 0000.0001) %MON dynstat_theta_sd             =   1.1972645097557E-12
(PID.TID 0000.0001) %MON dynstat_theta_del2           =   0.0000000000000E+00
(PID.TID 0000.0001) %MON dynstat_salt_max             =   3.0000000000000E+01
(PID.TID 0000.0001) %MON dynstat_salt_min             =   3.0000000000000E+01
(PID.TID 0000.0001) %MON dynstat_salt_mean            =   2.9999999999998E+01
(PID.TID 0000.0001) %MON dynstat_salt_sd              =   2.1529444893531E-12
(PID.TID 0000.0001) %MON dynstat_salt_del2            =   0.0000000000000E+00
(PID.TID 0000.0001) %MON trAdv_CFL_u_max              =   1.9769152006724E-02
(PID.TID 0000.0001) %MON trAdv_CFL_v_max              =   1.5296638411642E-02
(PID.TID 0000.0001) %MON trAdv_CFL_w_max              =   6.3717530699989E-09
(PID.TID 0000.0001) %MON advcfl_uvel_max              =   1.9771271800707E-02
(PID.TID 0000.0001) %MON advcfl_vvel_max              =   1.5299303448458E-02
(PID.TID 0000.0001) %MON advcfl_wvel_max              =   1.2018104254268E-08
(PID.TID 0000.0001) %MON advcfl_W_hf_max              =   0.0000000000000E+00
(PID.TID 0000.0001) %MON pe_b_mean                    =   4.8919756028684E-06
(PID.TID 0000.0001) %MON ke_max                       =   3.3933942413525E-03
(PID.TID 0000.0001) %MON ke_mean                      =   7.0260450216793E-04
(PID.TID 0000.0001) %MON ke_vol                       =   7.2529629296391E+15
(PID.TID 0000.0001) %MON vort_r_min                   =  -2.6455342138010E-06
(PID.TID 0000.0001) %MON vort_r_max                   =   2.4348201465889E-06
(PID.TID 0000.0001) %MON vort_a_mean                  =   1.0615000000000E-04
(PID.TID 0000.0001) %MON vort_a_sd                    =   3.5888602185517E-06
(PID.TID 0000.0001) %MON vort_p_mean                  =   1.1210870169429E-04
(PID.TID 0000.0001) %MON vort_p_sd                    =   2.1057875566347E-05
(PID.TID 0000.0001) %MON surfExpan_theta_mean         =  -1.0267621037809E-19
(PID.TID 0000.0001) %MON surfExpan_salt_mean          =  -1.5399387613303E-19
(PID.TID 0000.0001) // =======================================================
(PID.TID 0000.0001) // End MONITOR dynamic field statistics
(PID.TID 0000.0001) // =======================================================
 cg2d: Sum(rhs),rhsMax =   1.61150995235421E-04  8.37743488938175E-03
 cg2d: Sum(rhs),rhsMax =   1.61235383617843E-04  8.37869681151524E-03
 cg2d: Sum(rhs),rhsMax =   1.61319836576631E-04  8.37995872082498E-03
 cg2d: Sum(rhs),rhsMax =   1.61404366102194E-04  8.38122061618318E-03
 cg2d: Sum(rhs),rhsMax =   1.61488947007946E-04  8.38248249726432E-03
 cg2d: Sum(rhs),rhsMax =   1.61573593662144E-04  8.38374436295056E-03
 cg2d: Sum(rhs),rhsMax =   1.61658295032906E-04  8.38500621313990E-03
 cg2d: Sum(rhs),rhsMax =   1.61743079854035E-04  8.38626804620202E-03
 cg2d: Sum(rhs),rhsMax =   1.61827927393431E-04  8.38752986307094E-03
 cg2d: Sum(rhs),rhsMax =   1.61912786442044E-04  8.38879166083778E-03
 cg2d: Sum(rhs),rhsMax =   1.61997747745835E-04  8.39005344123507E-03
 cg2d: Sum(rhs),rhsMax =   1.62082774756744E-04  8.39131520230875E-03
 cg2d: Sum(rhs),rhsMax =   1.62167896995271E-04  8.39257694356816E-03
 cg2d: Sum(rhs),rhsMax =   1.62253091967235E-04  8.39383866400805E-03
 cg2d: Sum(rhs),rhsMax =   1.62338319137421E-04  8.39510036380634E-03
 cg2d: Sum(rhs),rhsMax =   1.62423634638443E-04  8.39636204158421E-03
 cg2d: Sum(rhs),rhsMax =   1.62509004471765E-04  8.39762369665845E-03
 cg2d: Sum(rhs),rhsMax =   1.62594420758064E-04  8.39888532797302E-03
 cg2d: Sum(rhs),rhsMax =   1.62679914893179E-04  8.40014693620839E-03
 cg2d: Sum(rhs),rhsMax =   1.62765486100482E-04  8.40140851970740E-03
 cg2d: Sum(rhs),rhsMax =   1.62851119930812E-04  8.40267007766990E-03
 cg2d: Sum(rhs),rhsMax =   1.62936816646284E-04  8.40393160954453E-03
 cg2d: Sum(rhs),rhsMax =   1.63022603525138E-04  8.40519311478744E-03
 cg2d: Sum(rhs),rhsMax =   1.63108429888849E-04  8.40645459269358E-03
 cg2d: Sum(rhs),rhsMax =   1.63194338141607E-04  8.40771604266760E-03
 cg2d: Sum(rhs),rhsMax =   1.63280281545200E-04  8.40897746381451E-03
 cg2d: Sum(rhs),rhsMax =   1.63366327134042E-04  8.41023885585550E-03
 cg2d: Sum(rhs),rhsMax =   1.63452408126924E-04  8.41150021730222E-03
 cg2d: Sum(rhs),rhsMax =   1.63538586635661E-04  8.41276154887782E-03
 cg2d: Sum(rhs),rhsMax =   1.63624741000066E-04  8.41402284782899E-03
 cg2d: Sum(rhs),rhsMax =   1.63711033025189E-04  8.41528411592637E-03
 cg2d: Sum(rhs),rhsMax =   1.63797359190037E-04  8.41654535094661E-03
 cg2d: Sum(rhs),rhsMax =   1.63883780461829E-04  8.41780655269841E-03
 cg2d: Sum(rhs),rhsMax =   1.63970251687288E-04  8.41906771996886E-03
 cg2d: Sum(rhs),rhsMax =   1.64056802130630E-04  8.42032885235330E-03
 cg2d: Sum(rhs),rhsMax =   1.64143403032987E-04  8.42158994929841E-03
 cg2d: Sum(rhs),rhsMax =   1.64230096657477E-04  8.42285100985042E-03
 cg2d: Sum(rhs),rhsMax =   1.64316817120376E-04  8.42411203345144E-03
 cg2d: Sum(rhs),rhsMax =   1.64403636538871E-04  8.42537301963753E-03
 cg2d: Sum(rhs),rhsMax =   1.64490492748661E-04  8.42663396691435E-03
 cg2d: Sum(rhs),rhsMax =   1.64577425970914E-04  8.42789487585994E-03
 cg2d: Sum(rhs),rhsMax =   1.64664421139544E-04  8.42915574475033E-03
 cg2d: Sum(rhs),rhsMax =   1.64751479026354E-04  8.43041657443174E-03
 cg2d: Sum(rhs),rhsMax =   1.64838597695342E-04  8.43167736287103E-03
 cg2d: Sum(rhs),rhsMax =   1.64925770603499E-04  8.43293810931303E-03
 cg2d: Sum(rhs),rhsMax =   1.65013001725967E-04  8.43419881339285E-03
 cg2d: Sum(rhs),rhsMax =   1.65100304525680E-04  8.43545947423502E-03
 cg2d: Sum(rhs),rhsMax =   1.65187666484781E-04  8.43672009128459E-03
 cg2d: Sum(rhs),rhsMax =   1.65275092327609E-04  8.43798066397082E-03
 cg2d: Sum(rhs),rhsMax =   1.65362543945630E-04  8.43924119120102E-03
 cg2d: Sum(rhs),rhsMax =   1.65450087078276E-04  8.44050167328477E-03
 cg2d: Sum(rhs),rhsMax =   1.65537649986362E-04  8.44176210765285E-03
 cg2d: Sum(rhs),rhsMax =   1.65625297246980E-04  8.44302249677478E-03
 cg2d: Sum(rhs),rhsMax =   1.65712948660718E-04  8.44428283784496E-03
 cg2d: Sum(rhs),rhsMax =   1.65800690468077E-04  8.44554312929715E-03
 cg2d: Sum(rhs),rhsMax =   1.65888506682641E-04  8.44680337184942E-03
 cg2d: Sum(rhs),rhsMax =   1.65976399480345E-04  8.44806356456129E-03
 cg2d: Sum(rhs),rhsMax =   1.66064319069775E-04  8.44932370668666E-03
 cg2d: Sum(rhs),rhsMax =   1.66152312316757E-04  8.45058379749018E-03
 cg2d: Sum(rhs),rhsMax =   1.66240354775159E-04  8.45184383623993E-03
 cg2d: Sum(rhs),rhsMax =   1.66328433704099E-04  8.45310382238342E-03
 cg2d: Sum(rhs),rhsMax =   1.66416555505632E-04  8.45436375447732E-03
 cg2d: Sum(rhs),rhsMax =   1.66504757680853E-04  8.45562363396199E-03
 cg2d: Sum(rhs),rhsMax =   1.66592954619344E-04  8.45688345811835E-03
 cg2d: Sum(rhs),rhsMax =   1.66681241587772E-04  8.45814322665451E-03
 cg2d: Sum(rhs),rhsMax =   1.66769572593083E-04  8.45940293970401E-03
 cg2d: Sum(rhs),rhsMax =   1.66857956286163E-04  8.46066259522313E-03
 cg2d: Sum(rhs),rhsMax =   1.66946397380782E-04  8.46192219389367E-03
 cg2d: Sum(rhs),rhsMax =   1.67034884212700E-04  8.46318173405317E-03
 cg2d: Sum(rhs),rhsMax =   1.67123414303395E-04  8.46444121573658E-03
 cg2d: Sum(rhs),rhsMax =   1.67211981064655E-04  8.46570063725291E-03
 cg2d: Sum(rhs),rhsMax =   1.67300561840738E-04  8.46695999750072E-03
(PID.TID 0000.0001)      cg2d_init_res =   7.76865006531086E-03
(PID.TID 0000.0001)      cg2d_iters(min,last) =      -1     385
(PID.TID 0000.0001)      cg2d_last_res =   9.99615830178807E-08
(PID.TID 0000.0001) // =======================================================
(PID.TID 0000.0001) // Begin MONITOR dynamic field statistics
(PID.TID 0000.0001) // =======================================================
(PID.TID 0000.0001) %MON time_tsnumber                =                  5904
(PID.TID 0000.0001) %MON time_secondsf                =   7.0848000000000E+06
(PID.TID 0000.0001) %MON dynstat_eta_max              =   8.5094713881715E-02
(PID.TID 0000.0001) %MON dynstat_eta_min              =  -1.7755789409184E-01
(PID.TID 0000.0001) %MON dynstat_eta_mean             =  -6.7455243985207E-09
(PID.TID 0000.0001) %MON dynstat_eta_sd               =   6.9750339219140E-02
(PID.TID 0000.0001) %MON dynstat_eta_del2             =   4.0210897512281E-07
(PID.TID 0000.0001) %MON dynstat_uvel_max             =   5.8599436970733E-02
(PID.TID 0000.0001) %MON dynstat_uvel_min             =  -8.3010357164168E-02
(PID.TID 0000.0001) %MON dynstat_uvel_mean            =   6.5714089827621E-08
(PID.TID 0000.0001) %MON dynstat_uvel_sd              =   2.8099469002562E-02
(PID.TID 0000.0001) %MON dynstat_uvel_del2            =   7.0518456878467E-07
(PID.TID 0000.0001) %MON dynstat_vvel_max             =   6.4547956969810E-02
(PID.TID 0000.0001) %MON dynstat_vvel_min             =  -5.8205058542295E-02
(PID.TID 0000.0001) %MON dynstat_vvel_mean            =  -2.9780835460874E-07
(PID.TID 0000.0001) %MON dynstat_vvel_sd              =   2.5447078552732E-02
(PID.TID 0000.0001) %MON dynstat_vvel_del2            =   9.1626674461579E-07
(PID.TID 0000.0001) %MON dynstat_wvel_max             =   2.5504273051629E-08
(PID.TID 0000.0001) %MON dynstat_wvel_min             =  -2.0735946351197E-08
(PID.TID 0000.0001) %MON dynstat_wvel_mean            =  -4.8395417429905E-21
(PID.TID 0000.0001) %MON dynstat_wvel_sd              =   8.6763983591499E-09
(PID.TID 0000.0001) %MON dynstat_wvel_del2            =   7.2396105650419E-14
(PID.TID 0000.0001) %MON dynstat_theta_max            =   2.0000000000000E+01
(PID.TID 0000.0001) %MON dynstat_theta_min            =   2.0000000000000E+01
(PID.TID 0000.0001) %MON dynstat_theta_mean           =   1.9999999999999E+01
(PID.TID 0000.0001) %MON dynstat_theta_sd             =   1.1972645097557E-12
(PID.TID 0000.0001) %MON dynstat_theta_del2           =   0.0000000000000E+00
(PID.TID 0000.0001) %MON dynstat_salt_max             =   3.0000000000000E+01
(PID.TID 0000.0001) %MON dynstat_salt_min             =   3.0000000000000E+01
(PID.TID 0000.0001) %MON dynstat_salt_mean            =   2.9999999999998E+01
(PID.TID 0000.0001) %MON dynstat_salt_sd              =   2.1529444893531E-12
(PID.TID 0000.0001) %MON dynstat_salt_del2            =   0.0000000000000E+00
(PID.TID 0000.0001) %MON trAdv_CFL_u_max              =   1.9920405084214E-02
(PID.TID 0000.0001) %MON trAdv_CFL_v_max              =   1.5488833611995E-02
(PID.TID 0000.0001) %MON trAdv_CFL_w_max              =   6.4935602549084E-09
(PID.TID 0000.0001) %MON advcfl_uvel_max              =   1.9922485719400E-02
(PID.TID 0000.0001) %MON advcfl_vvel_max              =   1.5491509672754E-02
(PID.TID 0000.0001) %MON advcfl_wvel_max              =   1.2242051064782E-08
(PID.TID 0000.0001) %MON advcfl_W_hf_max              =   0.0000000000000E+00
(PID.TID 0000.0001) %MON pe_b_mean                    =   4.9776737108659E-06
(PID.TID 0000.0001) %MON ke_max                       =   3.4455286682071E-03
(PID.TID 0000.0001) %MON ke_mean                      =   7.1533243913977E-04
(PID.TID 0000.0001) %MON ke_vol                       =   7.2529629296391E+15
(PID.TID 0000.0001) %MON vort_r_min                   =  -2.6745894487002E-06
(PID.TID 0000.0001) %MON vort_r_max                   =   2.4714781221162E-06
(PID.TID 0000.0001) %MON vort_a_mean                  =   1.0615000000000E-04
(PID.TID 0000.0001) %MON vort_a_sd                    =   3.5892989941494E-06
(PID.TID 0000.0001) %MON vort_p_mean                  =   1.1210870169429E-04
(PID.TID 0000.0001) %MON vort_p_sd                    =   2.1057908318075E-05
(PID.TID 0000.0001) %MON surfExpan_theta_mean         =  -9.6424087125404E-20
(PID.TID 0000.0001) %MON surfExpan_salt_mean          =  -1.4482286595927E-19
(PID.TID 0000.0001) // =======================================================
(PID.TID 0000.0001) // End MONITOR dynamic field statistics
(PID.TID 0000.0001) // =======================================================
 cg2d: Sum(rhs),rhsMax =   1.67389216496443E-04  8.46821929979987E-03
 cg2d: Sum(rhs),rhsMax =   1.67477909114727E-04  8.46947853976624E-03
 cg2d: Sum(rhs),rhsMax =   1.67566665790408E-04  8.47073771638487E-03
 cg2d: Sum(rhs),rhsMax =   1.67655430946762E-04  8.47199682960336E-03
 cg2d: Sum(rhs),rhsMax =   1.67744266740041E-04  8.47325588062015E-03
 cg2d: Sum(rhs),rhsMax =   1.67833096905027E-04  8.47451486681977E-03
 cg2d: Sum(rhs),rhsMax =   1.67921995224238E-04  8.47577378774336E-03
 cg2d: Sum(rhs),rhsMax =   1.68010930635993E-04  8.47703264277658E-03
 cg2d: Sum(rhs),rhsMax =   1.68099903421679E-04  8.47829143188478E-03
 cg2d: Sum(rhs),rhsMax =   1.68188887787942E-04  8.47955015339078E-03
 cg2d: Sum(rhs),rhsMax =   1.68277933923232E-04  8.48080880745276E-03
 cg2d: Sum(rhs),rhsMax =   1.68366986655320E-04  8.48206739166967E-03
 cg2d: Sum(rhs),rhsMax =   1.68456070876189E-04  8.48332590963835E-03
 cg2d: Sum(rhs),rhsMax =   1.68545169681176E-04  8.48458435702755E-03
 cg2d: Sum(rhs),rhsMax =   1.68634307214298E-04  8.48584273374636E-03
 cg2d: Sum(rhs),rhsMax =   1.68723469802543E-04  8.48710103894607E-03
 cg2d: Sum(rhs),rhsMax =   1.68812668006351E-04  8.48835927185184E-03
 cg2d: Sum(rhs),rhsMax =   1.68901864093830E-04  8.48961743218112E-03
 cg2d: Sum(rhs),rhsMax =   1.68991126422801E-04  8.49087551983192E-03
 cg2d: Sum(rhs),rhsMax =   1.69080387044379E-04  8.49213353327969E-03
 cg2d: Sum(rhs),rhsMax =   1.69169670878827E-04  8.49339147213555E-03
 cg2d: Sum(rhs),rhsMax =   1.69258962455787E-04  8.49464933550899E-03
 cg2d: Sum(rhs),rhsMax =   1.69348272866377E-04  8.49590712279792E-03
 cg2d: Sum(rhs),rhsMax =   1.69437600603036E-04  8.49716483385738E-03
 cg2d: Sum(rhs),rhsMax =   1.69526946223840E-04  8.49842246658692E-03
 cg2d: Sum(rhs),rhsMax =   1.69616292050140E-04  8.49968002306239E-03
 cg2d: Sum(rhs),rhsMax =   1.69705611697166E-04  8.50093749967652E-03
 cg2d: Sum(rhs),rhsMax =   1.69794963215524E-04  8.50219489822831E-03
 cg2d: Sum(rhs),rhsMax =   1.69884316603466E-04  8.50345221478269E-03
 cg2d: Sum(rhs),rhsMax =   1.69973678762810E-04  8.50470945194560E-03
 cg2d: Sum(rhs),rhsMax =   1.70063061768920E-04  8.50596660627864E-03
 cg2d: Sum(rhs),rhsMax =   1.70152452043828E-04  8.50722368025421E-03
 cg2d: Sum(rhs),rhsMax =   1.70241827972820E-04  8.50848066978225E-03
 cg2d: Sum(rhs),rhsMax =   1.70331192194378E-04  8.50973757731943E-03
 cg2d: Sum(rhs),rhsMax =   1.70420548742103E-04  8.51099439882380E-03
 cg2d: Sum(rhs),rhsMax =   1.70509912052412E-04  8.51225113763140E-03
 cg2d: Sum(rhs),rhsMax =   1.70599228096639E-04  8.51350778836595E-03
 cg2d: Sum(rhs),rhsMax =   1.70688551902564E-04  8.51476435575215E-03
 cg2d: Sum(rhs),rhsMax =   1.70777821717767E-04  8.51602083467560E-03
 cg2d: Sum(rhs),rhsMax =   1.70867115367400E-04  8.51727722669212E-03
 cg2d: Sum(rhs),rhsMax =   1.70956375983159E-04  8.51853352920306E-03
 cg2d: Sum(rhs),rhsMax =   1.71045617343366E-04  8.51978974410855E-03
 cg2d: Sum(rhs),rhsMax =   1.71134834175258E-04  8.52104586802534E-03
 cg2d: Sum(rhs),rhsMax =   1.71224035686288E-04  8.52230190306232E-03
 cg2d: Sum(rhs),rhsMax =   1.71313188476543E-04  8.52355784629614E-03
 cg2d: Sum(rhs),rhsMax =   1.71402330691149E-04  8.52481369841197E-03
 cg2d: Sum(rhs),rhsMax =   1.71491416429775E-04  8.52606945699884E-03
 cg2d: Sum(rhs),rhsMax =   1.71580506703633E-04  8.52732512368983E-03
 cg2d: Sum(rhs),rhsMax =   1.71669513860866E-04  8.52858069526434E-03
 cg2d: Sum(rhs),rhsMax =   1.71758498326544E-04  8.52983617387787E-03
 cg2d: Sum(rhs),rhsMax =   1.71847399414973E-04  8.53109155572594E-03
 cg2d: Sum(rhs),rhsMax =   1.71936308719884E-04  8.53234684438032E-03
 cg2d: Sum(rhs),rhsMax =   1.72025107240096E-04  8.53360203477938E-03
 cg2d: Sum(rhs),rhsMax =   1.72113891307227E-04  8.53485712942355E-03
 cg2d: Sum(rhs),rhsMax =   1.72202565291379E-04  8.53611212442401E-03
 cg2d: Sum(rhs),rhsMax =   1.72291220723387E-04  8.53736702342404E-03
 cg2d: Sum(rhs),rhsMax =   1.72379759546600E-04  8.53862182177947E-03
 cg2d: Sum(rhs),rhsMax =   1.72468266695144E-04  8.53987652081315E-03
 cg2d: Sum(rhs),rhsMax =   1.72556673238225E-04  8.54113111818159E-03
 cg2d: Sum(rhs),rhsMax =   1.72645017332185E-04  8.54238561598526E-03
 cg2d: Sum(rhs),rhsMax =   1.72733266905908E-04  8.54364001040056E-03
 cg2d: Sum(rhs),rhsMax =   1.72821446141167E-04  8.54489430380295E-03
 cg2d: Sum(rhs),rhsMax =   1.72909473226566E-04  8.54614849139315E-03
 cg2d: Sum(rhs),rhsMax =   1.72997443151374E-04  8.54740257867294E-03
 cg2d: Sum(rhs),rhsMax =   1.73085294342810E-04  8.54865655990066E-03
 cg2d: Sum(rhs),rhsMax =   1.73173069280603E-04  8.54991043567831E-03
 cg2d: Sum(rhs),rhsMax =   1.73260724418429E-04  8.55116420498604E-03
 cg2d: Sum(rhs),rhsMax =   1.73348267653615E-04  8.55241786830618E-03
 cg2d: Sum(rhs),rhsMax =   1.73435713368142E-04  8.55367142432500E-03
 cg2d: Sum(rhs),rhsMax =   1.73522985248240E-04  8.55492487255752E-03
 cg2d: Sum(rhs),rhsMax =   1.73610153813500E-04  8.55617821260773E-03
 cg2d: Sum(rhs),rhsMax =   1.73697176734346E-04  8.55743144337912E-03
(PID.TID 0000.0001)      cg2d_init_res =   7.64944333586910E-03
(PID.TID 0000.0001)      cg2d_iters(min,last) =      -1     385
(PID.TID 0000.0001)      cg2d_last_res =   9.72662993268356E-08
(PID.TID 0000.0001) // =======================================================
(PID.TID 0000.0001) // Begin MONITOR dynamic field statistics
(PID.TID 0000.0001) // =======================================================
(PID.TID 0000.0001) %MON time_tsnumber                =                  5976
(PID.TID 0000.0001) %MON time_secondsf                =   7.1712000000000E+06
(PID.TID 0000.0001) %MON dynstat_eta_max              =   8.6013910998412E-02
(PID.TID 0000.0001) %MON dynstat_eta_min              =  -1.7928746717652E-01
(PID.TID 0000.0001) %MON dynstat_eta_mean             =  -7.0780410956852E-09
(PID.TID 0000.0001) %MON dynstat_eta_sd               =   7.0348618685823E-02
(PID.TID 0000.0001) %MON dynstat_eta_del2             =   4.0580473451078E-07
(PID.TID 0000.0001) %MON dynstat_uvel_max             =   5.9634074243198E-02
(PID.TID 0000.0001) %MON dynstat_uvel_min             =  -8.3628207809384E-02
(PID.TID 0000.0001) %MON dynstat_uvel_mean            =   3.8489346975419E-08
(PID.TID 0000.0001) %MON dynstat_uvel_sd              =   2.8383605071528E-02
(PID.TID 0000.0001) %MON dynstat_uvel_del2            =   7.1077654487936E-07
(PID.TID 0000.0001) %MON dynstat_vvel_max             =   6.5355137041952E-02
(PID.TID 0000.0001) %MON dynstat_vvel_min             =  -5.8634450291100E-02
(PID.TID 0000.0001) %MON dynstat_vvel_mean            =  -2.9572354702102E-07
(PID.TID 0000.0001) %MON dynstat_vvel_sd              =   2.5637956581767E-02
(PID.TID 0000.0001) %MON dynstat_vvel_del2            =   9.2468708211933E-07
(PID.TID 0000.0001) %MON dynstat_wvel_max             =   2.5744606974768E-08
(PID.TID 0000.0001) %MON dynstat_wvel_min             =  -2.0910640810616E-08
(PID.TID 0000.0001) %MON dynstat_wvel_mean            =  -2.3181483609110E-21
(PID.TID 0000.0001) %MON dynstat_wvel_sd              =   8.5586580831572E-09
(PID.TID 0000.0001) %MON dynstat_wvel_del2            =   7.2109812604165E-14
(PID.TID 0000.0001) %MON dynstat_theta_max            =   2.0000000000000E+01
(PID.TID 0000.0001) %MON dynstat_theta_min            =   2.0000000000000E+01
(PID.TID 0000.0001) %MON dynstat_theta_mean           =   1.9999999999999E+01
(PID.TID 0000.0001) %MON dynstat_theta_sd             =   1.1972645097557E-12
(PID.TID 0000.0001) %MON dynstat_theta_del2           =   0.0000000000000E+00
(PID.TID 0000.0001) %MON dynstat_salt_max             =   3.0000000000000E+01
(PID.TID 0000.0001) %MON dynstat_salt_min             =   3.0000000000000E+01
(PID.TID 0000.0001) %MON dynstat_salt_mean            =   2.9999999999998E+01
(PID.TID 0000.0001) %MON dynstat_salt_sd              =   2.1529444893531E-12
(PID.TID 0000.0001) %MON dynstat_salt_del2            =   0.0000000000000E+00
(PID.TID 0000.0001) %MON trAdv_CFL_u_max              =   2.0068731422296E-02
(PID.TID 0000.0001) %MON trAdv_CFL_v_max              =   1.5682524646964E-02
(PID.TID 0000.0001) %MON trAdv_CFL_w_max              =   6.5570046701746E-09
(PID.TID 0000.0001) %MON advcfl_uvel_max              =   2.0070769874252E-02
(PID.TID 0000.0001) %MON advcfl_vvel_max              =   1.5685232890068E-02
(PID.TID 0000.0001) %MON advcfl_wvel_max              =   1.2357411347888E-08
(PID.TID 0000.0001) %MON advcfl_W_hf_max              =   0.0000000000000E+00
(PID.TID 0000.0001) %MON pe_b_mean                    =   5.0634313426893E-06
(PID.TID 0000.0001) %MON ke_max                       =   3.4970421079667E-03
(PID.TID 0000.0001) %MON ke_mean                      =   7.2817431630227E-04
(PID.TID 0000.0001) %MON ke_vol                       =   7.2529629296391E+15
(PID.TID 0000.0001) %MON vort_r_min                   =  -2.7035896661695E-06
(PID.TID 0000.0001) %MON vort_r_max                   =   2.5076134045595E-06
(PID.TID 0000.0001) %MON vort_a_mean                  =   1.0615000000000E-04
(PID.TID 0000.0001) %MON vort_a_sd                    =   3.5897487315478E-06
(PID.TID 0000.0001) %MON vort_p_mean                  =   1.1210870169429E-04
(PID.TID 0000.0001) %MON vort_p_sd                    =   2.1057941143616E-05
(PID.TID 0000.0001) %MON surfExpan_theta_mean         =  -4.6155882048194E-20
(PID.TID 0000.0001) %MON surfExpan_salt_mean          =  -6.9428223131242E-20
(PID.TID 0000.0001) // =======================================================
(PID.TID 0000.0001) // End MONITOR dynamic field statistics
(PID.TID 0000.0001) // =======================================================
 cg2d: Sum(rhs),rhsMax =   1.73784056049267E-04  8.55868456395039E-03
 cg2d: Sum(rhs),rhsMax =   1.73870724863386E-04  8.55993757237180E-03
 cg2d: Sum(rhs),rhsMax =   1.73957283085776E-04  8.56119047259424E-03
 cg2d: Sum(rhs),rhsMax =   1.74043658299055E-04  8.56244325981165E-03
 cg2d: Sum(rhs),rhsMax =   1.74129876816295E-04  8.56369593447685E-03
 cg2d: Sum(rhs),rhsMax =   1.74215917634505E-04  8.56494849488981E-03
 cg2d: Sum(rhs),rhsMax =   1.74301778201481E-04  8.56620094233434E-03
 cg2d: Sum(rhs),rhsMax =   1.74387432466309E-04  8.56745327459700E-03
 cg2d: Sum(rhs),rhsMax =   1.74472902106440E-04  8.56870549183097E-03
 cg2d: Sum(rhs),rhsMax =   1.74558109422712E-04  8.56995759199456E-03
 cg2d: Sum(rhs),rhsMax =   1.74643127981345E-04  8.57120957643205E-03
 cg2d: Sum(rhs),rhsMax =   1.74727940818499E-04  8.57246144286712E-03
 cg2d: Sum(rhs),rhsMax =   1.74812483648420E-04  8.57371319327260E-03
 cg2d: Sum(rhs),rhsMax =   1.74896764888174E-04  8.57496482362654E-03
 cg2d: Sum(rhs),rhsMax =   1.74980806098943E-04  8.57621633527516E-03
 cg2d: Sum(rhs),rhsMax =   1.75064577440272E-04  8.57746772598638E-03
 cg2d: Sum(rhs),rhsMax =   1.75158610666720E-04  8.57871900808845E-03
 cg2d: Sum(rhs),rhsMax =   1.75252277653533E-04  8.57997015749447E-03
 cg2d: Sum(rhs),rhsMax =   1.75345604963741E-04  8.58122118568864E-03
 cg2d: Sum(rhs),rhsMax =   1.75438553412243E-04  8.58247208959389E-03
 cg2d: Sum(rhs),rhsMax =   1.75531038448879E-04  8.58372287273199E-03
 cg2d: Sum(rhs),rhsMax =   1.75623217128145E-04  8.58497352792829E-03
 cg2d: Sum(rhs),rhsMax =   1.75714930155148E-04  8.58622406379450E-03
 cg2d: Sum(rhs),rhsMax =   1.75816077737638E-04  8.58747447875769E-03
 cg2d: Sum(rhs),rhsMax =   1.75916720281223E-04  8.58872476102336E-03
 cg2d: Sum(rhs),rhsMax =   1.76016791050523E-04  8.58997491606065E-03
 cg2d: Sum(rhs),rhsMax =   1.76116288263589E-04  8.59122494357569E-03
 cg2d: Sum(rhs),rhsMax =   1.76215177653245E-04  8.59247484398610E-03
 cg2d: Sum(rhs),rhsMax =   1.76313394565333E-04  8.59372461364936E-03
 cg2d: Sum(rhs),rhsMax =   1.76411016857137E-04  8.59497425755694E-03
 cg2d: Sum(rhs),rhsMax =   1.76507901814345E-04  8.59622377155056E-03
 cg2d: Sum(rhs),rhsMax =   1.76604130791085E-04  8.59747315352232E-03
 cg2d: Sum(rhs),rhsMax =   1.76699600334696E-04  8.59872240410746E-03
 cg2d: Sum(rhs),rhsMax =   1.76794297661331E-04  8.59997152417024E-03
 cg2d: Sum(rhs),rhsMax =   1.76888147981495E-04  8.60122051109094E-03
 cg2d: Sum(rhs),rhsMax =   1.76981191139807E-04  8.60246936495883E-03
 cg2d: Sum(rhs),rhsMax =   1.77073302155684E-04  8.60371808461239E-03
 cg2d: Sum(rhs),rhsMax =   1.77164490734188E-04  8.60496666987792E-03
 cg2d: Sum(rhs),rhsMax =   1.77254668739722E-04  8.60621511936198E-03
 cg2d: Sum(rhs),rhsMax =   1.77363360748620E-04  8.60746341437882E-03
 cg2d: Sum(rhs),rhsMax =   1.77470607011700E-04  8.60871159093699E-03
 cg2d: Sum(rhs),rhsMax =   1.77576415696988E-04  8.60995963351514E-03
 cg2d: Sum(rhs),rhsMax =   1.77680616461727E-04  8.61120753732539E-03
 cg2d: Sum(rhs),rhsMax =   1.77783231650673E-04  8.61245530417763E-03
 cg2d: Sum(rhs),rhsMax =   1.77884127386655E-04  8.61370292995363E-03
 cg2d: Sum(rhs),rhsMax =   1.77983288550359E-04  8.61495041677063E-03
 cg2d: Sum(rhs),rhsMax =   1.78080563755061E-04  8.61619776253839E-03
 cg2d: Sum(rhs),rhsMax =   1.78195063716838E-04  8.61744498644484E-03
 cg2d: Sum(rhs),rhsMax =   1.78306941918284E-04  8.61869204937812E-03
 cg2d: Sum(rhs),rhsMax =   1.78416082633991E-04  8.61993897036972E-03
 cg2d: Sum(rhs),rhsMax =   1.78522344903204E-04  8.62118574874145E-03
 cg2d: Sum(rhs),rhsMax =   1.78625575554968E-04  8.62243238163939E-03
 cg2d: Sum(rhs),rhsMax =   1.78744594807262E-04  8.62367885888128E-03
 cg2d: Sum(rhs),rhsMax =   1.78859521807762E-04  8.62492520654741E-03
 cg2d: Sum(rhs),rhsMax =   1.78970192941216E-04  8.62617140687754E-03
 cg2d: Sum(rhs),rhsMax =   1.79084893452879E-04  8.62741745770839E-03
 cg2d: Sum(rhs),rhsMax =   1.79194550919666E-04  8.62866336730570E-03
 cg2d: Sum(rhs),rhsMax =   1.79316569832375E-04  8.62990914583399E-03
 cg2d: Sum(rhs),rhsMax =   1.79536715345775E-04  8.63115475798235E-03
 cg2d: Sum(rhs),rhsMax =   1.79815392478707E-04  8.63240021651812E-03
 cg2d: Sum(rhs),rhsMax =   1.80073979777234E-04  8.63364552898617E-03
 cg2d: Sum(rhs),rhsMax =   1.80312983487873E-04  8.63489069343082E-03
 cg2d: Sum(rhs),rhsMax =   1.80532873132602E-04  8.63613570850276E-03
 cg2d: Sum(rhs),rhsMax =   1.80734321239969E-04  8.63738056952208E-03
 cg2d: Sum(rhs),rhsMax =   1.80917972014187E-04  8.63862528061053E-03
 cg2d: Sum(rhs),rhsMax =   1.81084500059870E-04  8.63986983764054E-03
 cg2d: Sum(rhs),rhsMax =   1.81239010275745E-04  8.64111423945446E-03
 cg2d: Sum(rhs),rhsMax =   1.81377668915548E-04  8.64235849014306E-03
 cg2d: Sum(rhs),rhsMax =   1.81501201108158E-04  8.64360258643097E-03
 cg2d: Sum(rhs),rhsMax =   1.81610484437385E-04  8.64484652740853E-03
 cg2d: Sum(rhs),rhsMax =   1.81706257595664E-04  8.64609031346983E-03
 cg2d: Sum(rhs),rhsMax =   1.81789377064154E-04  8.64733394342405E-03
(PID.TID 0000.0001)      cg2d_init_res =   7.52393118251099E-03
(PID.TID 0000.0001)      cg2d_iters(min,last) =      -1     353
(PID.TID 0000.0001)      cg2d_last_res =   8.82230575605813E-08
(PID.TID 0000.0001) // =======================================================
(PID.TID 0000.0001) // Begin MONITOR dynamic field statistics
(PID.TID 0000.0001) // =======================================================
(PID.TID 0000.0001) %MON time_tsnumber                =                  6048
(PID.TID 0000.0001) %MON time_secondsf                =   7.2576000000000E+06
(PID.TID 0000.0001) %MON dynstat_eta_max              =   8.6900636175359E-02
(PID.TID 0000.0001) %MON dynstat_eta_min              =  -1.8101811548974E-01
(PID.TID 0000.0001) %MON dynstat_eta_mean             =  -7.4847921877711E-09
(PID.TID 0000.0001) %MON dynstat_eta_sd               =   7.0941897860139E-02
(PID.TID 0000.0001) %MON dynstat_eta_del2             =   4.0954141944716E-07
(PID.TID 0000.0001) %MON dynstat_uvel_max             =   6.0735356377226E-02
(PID.TID 0000.0001) %MON dynstat_uvel_min             =  -8.4232950484719E-02
(PID.TID 0000.0001) %MON dynstat_uvel_mean            =   9.6285393720684E-09
(PID.TID 0000.0001) %MON dynstat_uvel_sd              =   2.8670589568619E-02
(PID.TID 0000.0001) %MON dynstat_uvel_del2            =   7.1623689624750E-07
(PID.TID 0000.0001) %MON dynstat_vvel_max             =   6.6172449364283E-02
(PID.TID 0000.0001) %MON dynstat_vvel_min             =  -5.9054438563119E-02
(PID.TID 0000.0001) %MON dynstat_vvel_mean            =  -2.8893718660933E-07
(PID.TID 0000.0001) %MON dynstat_vvel_sd              =   2.5825289585910E-02
(PID.TID 0000.0001) %MON dynstat_vvel_del2            =   9.3323233426340E-07
(PID.TID 0000.0001) %MON dynstat_wvel_max             =   2.5755382184871E-08
(PID.TID 0000.0001) %MON dynstat_wvel_min             =  -2.1075988118537E-08
(PID.TID 0000.0001) %MON dynstat_wvel_mean            =   5.5673176118929E-21
(PID.TID 0000.0001) %MON dynstat_wvel_sd              =   8.4426983188958E-09
(PID.TID 0000.0001) %MON dynstat_wvel_del2            =   7.1722022731140E-14
(PID.TID 0000.0001) %MON dynstat_theta_max            =   2.0000000000000E+01
(PID.TID 0000.0001) %MON dynstat_theta_min            =   2.0000000000000E+01
(PID.TID 0000.0001) %MON dynstat_theta_mean           =   1.9999999999999E+01
(PID.TID 0000.0001) %MON dynstat_theta_sd             =   1.1972645097557E-12
(PID.TID 0000.0001) %MON dynstat_theta_del2           =   0.0000000000000E+00
(PID.TID 0000.0001) %MON dynstat_salt_max             =   3.0000000000000E+01
(PID.TID 0000.0001) %MON dynstat_salt_min             =   3.0000000000000E+01
(PID.TID 0000.0001) %MON dynstat_salt_mean            =   2.9999999999998E+01
(PID.TID 0000.0001) %MON dynstat_salt_sd              =   2.1529444893531E-12
(PID.TID 0000.0001) %MON dynstat_salt_del2            =   0.0000000000000E+00
(PID.TID 0000.0001) %MON trAdv_CFL_u_max              =   2.0213914801547E-02
(PID.TID 0000.0001) %MON trAdv_CFL_v_max              =   1.5878646143294E-02
(PID.TID 0000.0001) %MON trAdv_CFL_w_max              =   6.5599698729211E-09
(PID.TID 0000.0001) %MON advcfl_uvel_max              =   2.0215908116333E-02
(PID.TID 0000.0001) %MON advcfl_vvel_max              =   1.5881387847428E-02
(PID.TID 0000.0001) %MON advcfl_wvel_max              =   1.2362583448738E-08
(PID.TID 0000.0001) %MON advcfl_W_hf_max              =   0.0000000000000E+00
(PID.TID 0000.0001) %MON pe_b_mean                    =   5.1491955135617E-06
(PID.TID 0000.0001) %MON ke_max                       =   3.5478359049539E-03
(PID.TID 0000.0001) %MON ke_mean                      =   7.4112298279768E-04
(PID.TID 0000.0001) %MON ke_vol                       =   7.2529629296391E+15
(PID.TID 0000.0001) %MON vort_r_min                   =  -2.7324492461499E-06
(PID.TID 0000.0001) %MON vort_r_max                   =   2.5427733181288E-06
(PID.TID 0000.0001) %MON vort_a_mean                  =   1.0615000000000E-04
(PID.TID 0000.0001) %MON vort_a_sd                    =   3.5902076872150E-06
(PID.TID 0000.0001) %MON vort_p_mean                  =   1.1210870169429E-04
(PID.TID 0000.0001) %MON vort_p_sd                    =   2.1057976365445E-05
(PID.TID 0000.0001) %MON surfExpan_theta_mean         =   1.1125222026513E-19
(PID.TID 0000.0001) %MON surfExpan_salt_mean          =   1.6699672131106E-19
(PID.TID 0000.0001) // =======================================================
(PID.TID 0000.0001) // End MONITOR dynamic field statistics
(PID.TID 0000.0001) // =======================================================
 cg2d: Sum(rhs),rhsMax =   1.81860727667382E-04  8.64857741610352E-03
 cg2d: Sum(rhs),rhsMax =   1.81921176078580E-04  8.64982073192542E-03
 cg2d: Sum(rhs),rhsMax =   1.81971610242034E-04  8.65106388846897E-03
 cg2d: Sum(rhs),rhsMax =   1.82012987992902E-04  8.65230688724525E-03
 cg2d: Sum(rhs),rhsMax =   1.82046224009212E-04  8.65354972499483E-03
 cg2d: Sum(rhs),rhsMax =   1.82072255344732E-04  8.65479240425203E-03
 cg2d: Sum(rhs),rhsMax =   1.82092021612528E-04  8.65603491945079E-03
 cg2d: Sum(rhs),rhsMax =   1.82106572001097E-04  8.65727727715567E-03
 cg2d: Sum(rhs),rhsMax =   1.82120318147461E-04  8.65851947487415E-03
 cg2d: Sum(rhs),rhsMax =   1.82130758780397E-04  8.65976150612864E-03
 cg2d: Sum(rhs),rhsMax =   1.82138885238610E-04  8.66100337485450E-03
 cg2d: Sum(rhs),rhsMax =   1.82145726754892E-04  8.66224507737300E-03
 cg2d: Sum(rhs),rhsMax =   1.82152325788309E-04  8.66348661901199E-03
 cg2d: Sum(rhs),rhsMax =   1.82159689411340E-04  8.66472799280518E-03
 cg2d: Sum(rhs),rhsMax =   1.82168876431771E-04  8.66596920440197E-03
 cg2d: Sum(rhs),rhsMax =   1.82180920566499E-04  8.66721024599328E-03
 cg2d: Sum(rhs),rhsMax =   1.82196884812679E-04  8.66845112400935E-03
 cg2d: Sum(rhs),rhsMax =   1.82217762072345E-04  8.66969183171076E-03
 cg2d: Sum(rhs),rhsMax =   1.82241005941641E-04  8.67093237052496E-03
 cg2d: Sum(rhs),rhsMax =   1.82271130360880E-04  8.67217274259092E-03
 cg2d: Sum(rhs),rhsMax =   1.82309193429387E-04  8.67341294531579E-03
 cg2d: Sum(rhs),rhsMax =   1.82356159248572E-04  8.67465297798151E-03
 cg2d: Sum(rhs),rhsMax =   1.82413047434899E-04  8.67589284008665E-03
 cg2d: Sum(rhs),rhsMax =   1.82480800388204E-04  8.67713253123452E-03
 cg2d: Sum(rhs),rhsMax =   1.82560460069455E-04  8.67837205012088E-03
 cg2d: Sum(rhs),rhsMax =   1.82652892183839E-04  8.67961139719034E-03
 cg2d: Sum(rhs),rhsMax =   1.82759100482502E-04  8.68085057000424E-03
 cg2d: Sum(rhs),rhsMax =   1.82879980655356E-04  8.68208956856103E-03
 cg2d: Sum(rhs),rhsMax =   1.83016469707009E-04  8.68332839474492E-03
 cg2d: Sum(rhs),rhsMax =   1.83169453865529E-04  8.68456704647644E-03
 cg2d: Sum(rhs),rhsMax =   1.83339806412962E-04  8.68580552090409E-03
 cg2d: Sum(rhs),rhsMax =   1.83528366177868E-04  8.68704381994017E-03
 cg2d: Sum(rhs),rhsMax =   1.83731073747150E-04  8.68828194431543E-03
 cg2d: Sum(rhs),rhsMax =   1.83953315445618E-04  8.68951988955165E-03
 cg2d: Sum(rhs),rhsMax =   1.84195876391078E-04  8.69075765672967E-03
 cg2d: Sum(rhs),rhsMax =   1.84459499158806E-04  8.69199524473487E-03
 cg2d: Sum(rhs),rhsMax =   1.84744900160011E-04  8.69323265491275E-03
 cg2d: Sum(rhs),rhsMax =   1.85052757913279E-04  8.69446988494700E-03
 cg2d: Sum(rhs),rhsMax =   1.85177738608048E-04  8.69570693698315E-03
 cg2d: Sum(rhs),rhsMax =   1.85289766221631E-04  8.69694378814340E-03
 cg2d: Sum(rhs),rhsMax =   1.85398174321380E-04  8.69818047807001E-03
 cg2d: Sum(rhs),rhsMax =   1.85511153683156E-04  8.69941698427139E-03
 cg2d: Sum(rhs),rhsMax =   1.85628581004087E-04  8.70065330789192E-03
 cg2d: Sum(rhs),rhsMax =   1.85730103622456E-04  8.70188946179970E-03
 cg2d: Sum(rhs),rhsMax =   1.85834820712192E-04  8.70312541856207E-03
 cg2d: Sum(rhs),rhsMax =   1.85942531102091E-04  8.70436118899437E-03
 cg2d: Sum(rhs),rhsMax =   1.86053155141841E-04  8.70559677643275E-03
 cg2d: Sum(rhs),rhsMax =   1.86166525690649E-04  8.70683217623299E-03
 cg2d: Sum(rhs),rhsMax =   1.86261855284921E-04  8.70806737165473E-03
 cg2d: Sum(rhs),rhsMax =   1.86359074945630E-04  8.70930239864188E-03
 cg2d: Sum(rhs),rhsMax =   1.86458066970341E-04  8.71053723972850E-03
 cg2d: Sum(rhs),rhsMax =   1.86558745070450E-04  8.71177189122421E-03
 cg2d: Sum(rhs),rhsMax =   1.86661028865418E-04  8.71300635621475E-03
 cg2d: Sum(rhs),rhsMax =   1.86764789567752E-04  8.71424062992775E-03
 cg2d: Sum(rhs),rhsMax =   1.86870027674814E-04  8.71547471545601E-03
 cg2d: Sum(rhs),rhsMax =   1.86955912077496E-04  8.71670862720996E-03
 cg2d: Sum(rhs),rhsMax =   1.87042792956962E-04  8.71794233281177E-03
 cg2d: Sum(rhs),rhsMax =   1.87130498483857E-04  8.71917584540074E-03
 cg2d: Sum(rhs),rhsMax =   1.87219051867681E-04  8.72040916631848E-03
 cg2d: Sum(rhs),rhsMax =   1.87308377038203E-04  8.72164229352327E-03
 cg2d: Sum(rhs),rhsMax =   1.87398430342675E-04  8.72287522780220E-03
 cg2d: Sum(rhs),rhsMax =   1.87489169685737E-04  8.72410796702237E-03
 cg2d: Sum(rhs),rhsMax =   1.87580559245077E-04  8.72534051294567E-03
 cg2d: Sum(rhs),rhsMax =   1.87672522742342E-04  8.72657286104530E-03
 cg2d: Sum(rhs),rhsMax =   1.87765093163971E-04  8.72780501770342E-03
 cg2d: Sum(rhs),rhsMax =   1.87858183399347E-04  8.72903697669577E-03
 cg2d: Sum(rhs),rhsMax =   1.87951805193163E-04  8.73026873996199E-03
 cg2d: Sum(rhs),rhsMax =   1.88045879192756E-04  8.73150030420845E-03
 cg2d: Sum(rhs),rhsMax =   1.88140425553955E-04  8.73273167195500E-03
 cg2d: Sum(rhs),rhsMax =   1.88235366272457E-04  8.73396283895136E-03
 cg2d: Sum(rhs),rhsMax =   1.88330720426750E-04  8.73519381079972E-03
 cg2d: Sum(rhs),rhsMax =   1.88415974226142E-04  8.73642457404311E-03
(PID.TID 0000.0001)      cg2d_init_res =   7.39139346314572E-03
(PID.TID 0000.0001)      cg2d_iters(min,last) =      -1     384
(PID.TID 0000.0001)      cg2d_last_res =   9.86967430655992E-08
(PID.TID 0000.0001) // =======================================================
(PID.TID 0000.0001) // Begin MONITOR dynamic field statistics
(PID.TID 0000.0001) // =======================================================
(PID.TID 0000.0001) %MON time_tsnumber                =                  6120
(PID.TID 0000.0001) %MON time_secondsf                =   7.3440000000000E+06
(PID.TID 0000.0001) %MON dynstat_eta_max              =   8.7767899356994E-02
(PID.TID 0000.0001) %MON dynstat_eta_min              =  -1.8274882909327E-01
(PID.TID 0000.0001) %MON dynstat_eta_mean             =  -7.8380094708842E-09
(PID.TID 0000.0001) %MON dynstat_eta_sd               =   7.1529811150385E-02
(PID.TID 0000.0001) %MON dynstat_eta_del2             =   4.1330742637384E-07
(PID.TID 0000.0001) %MON dynstat_uvel_max             =   6.1867766872920E-02
(PID.TID 0000.0001) %MON dynstat_uvel_min             =  -8.4823774910115E-02
(PID.TID 0000.0001) %MON dynstat_uvel_mean            =  -1.9436588991127E-08
(PID.TID 0000.0001) %MON dynstat_uvel_sd              =   2.8957918166218E-02
(PID.TID 0000.0001) %MON dynstat_uvel_del2            =   7.2144545079206E-07
(PID.TID 0000.0001) %MON dynstat_vvel_max             =   6.7001213896068E-02
(PID.TID 0000.0001) %MON dynstat_vvel_min             =  -5.9467112179955E-02
(PID.TID 0000.0001) %MON dynstat_vvel_mean            =  -2.7742821871942E-07
(PID.TID 0000.0001) %MON dynstat_vvel_sd              =   2.6011428844228E-02
(PID.TID 0000.0001) %MON dynstat_vvel_del2            =   9.4189212122634E-07
(PID.TID 0000.0001) %MON dynstat_wvel_max             =   2.5531254918315E-08
(PID.TID 0000.0001) %MON dynstat_wvel_min             =  -2.1228953541722E-08
(PID.TID 0000.0001) %MON dynstat_wvel_mean            =  -5.9091456333230E-21
(PID.TID 0000.0001) %MON dynstat_wvel_sd              =   8.3326702623860E-09
(PID.TID 0000.0001) %MON dynstat_wvel_del2            =   7.1404331884838E-14
(PID.TID 0000.0001) %MON dynstat_theta_max            =   2.0000000000000E+01
(PID.TID 0000.0001) %MON dynstat_theta_min            =   2.0000000000000E+01
(PID.TID 0000.0001) %MON dynstat_theta_mean           =   1.9999999999999E+01
(PID.TID 0000.0001) %MON dynstat_theta_sd             =   1.1972645097557E-12
(PID.TID 0000.0001) %MON dynstat_theta_del2           =   0.0000000000000E+00
(PID.TID 0000.0001) %MON dynstat_salt_max             =   3.0000000000000E+01
(PID.TID 0000.0001) %MON dynstat_salt_min             =   3.0000000000000E+01
(PID.TID 0000.0001) %MON dynstat_salt_mean            =   2.9999999999998E+01
(PID.TID 0000.0001) %MON dynstat_salt_sd              =   2.1529444893531E-12
(PID.TID 0000.0001) %MON dynstat_salt_del2            =   0.0000000000000E+00
(PID.TID 0000.0001) %MON trAdv_CFL_u_max              =   2.0355758544860E-02
(PID.TID 0000.0001) %MON trAdv_CFL_v_max              =   1.6077507223682E-02
(PID.TID 0000.0001) %MON trAdv_CFL_w_max              =   6.5023797154515E-09
(PID.TID 0000.0001) %MON advcfl_uvel_max              =   2.0357705978428E-02
(PID.TID 0000.0001) %MON advcfl_vvel_max              =   1.6080291335056E-02
(PID.TID 0000.0001) %MON advcfl_wvel_max              =   1.2255002360791E-08
(PID.TID 0000.0001) %MON advcfl_W_hf_max              =   0.0000000000000E+00
(PID.TID 0000.0001) %MON pe_b_mean                    =   5.2348945005993E-06
(PID.TID 0000.0001) %MON ke_max                       =   3.5978136987401E-03
(PID.TID 0000.0001) %MON ke_mean                      =   7.5416758189493E-04
(PID.TID 0000.0001) %MON ke_vol                       =   7.2529629296391E+15
(PID.TID 0000.0001) %MON vort_r_min                   =  -2.7610839057633E-06
(PID.TID 0000.0001) %MON vort_r_max                   =   2.5771651686082E-06
(PID.TID 0000.0001) %MON vort_a_mean                  =   1.0615000000000E-04
(PID.TID 0000.0001) %MON vort_a_sd                    =   3.5906737800704E-06
(PID.TID 0000.0001) %MON vort_p_mean                  =   1.1210870169429E-04
(PID.TID 0000.0001) %MON vort_p_sd                    =   2.1058016257571E-05
(PID.TID 0000.0001) %MON surfExpan_theta_mean         =  -1.1857231334303E-19
(PID.TID 0000.0001) %MON surfExpan_salt_mean          =  -1.7780271244062E-19
(PID.TID 0000.0001) // =======================================================
(PID.TID 0000.0001) // End MONITOR dynamic field statistics
(PID.TID 0000.0001) // =======================================================
 cg2d: Sum(rhs),rhsMax =   1.88501464157550E-04  8.73765514506232E-03
 cg2d: Sum(rhs),rhsMax =   1.88587286710042E-04  8.73888551405879E-03
 cg2d: Sum(rhs),rhsMax =   1.88673325326525E-04  8.74011568227445E-03
 cg2d: Sum(rhs),rhsMax =   1.88759591721483E-04  8.74134564874144E-03
 cg2d: Sum(rhs),rhsMax =   1.88846093255701E-04  8.74257541343883E-03
 cg2d: Sum(rhs),rhsMax =   1.88932725782220E-04  8.74380497422701E-03
 cg2d: Sum(rhs),rhsMax =   1.89008591669105E-04  8.74503432265468E-03
 cg2d: Sum(rhs),rhsMax =   1.89084519122947E-04  8.74626347578474E-03
 cg2d: Sum(rhs),rhsMax =   1.89160624834941E-04  8.74749242665507E-03
 cg2d: Sum(rhs),rhsMax =   1.89236771014666E-04  8.74872116986441E-03
 cg2d: Sum(rhs),rhsMax =   1.89313039378936E-04  8.74994971041079E-03
 cg2d: Sum(rhs),rhsMax =   1.89389383401834E-04  8.75117804306785E-03
 cg2d: Sum(rhs),rhsMax =   1.89465810507354E-04  8.75240616920203E-03
 cg2d: Sum(rhs),rhsMax =   1.89542248810881E-04  8.75363408588845E-03
 cg2d: Sum(rhs),rhsMax =   1.89618779998971E-04  8.75486179772690E-03
 cg2d: Sum(rhs),rhsMax =   1.89695311484744E-04  8.75608929910262E-03
 cg2d: Sum(rhs),rhsMax =   1.89771920075034E-04  8.75731659202444E-03
 cg2d: Sum(rhs),rhsMax =   1.89848530044712E-04  8.75854367411927E-03
 cg2d: Sum(rhs),rhsMax =   1.89925175381961E-04  8.75977054854845E-03
 cg2d: Sum(rhs),rhsMax =   1.90001824395034E-04  8.76099721044946E-03
 cg2d: Sum(rhs),rhsMax =   1.90078495953561E-04  8.76222366320439E-03
 cg2d: Sum(rhs),rhsMax =   1.90155148803949E-04  8.76344990248182E-03
 cg2d: Sum(rhs),rhsMax =   1.90231820840346E-04  8.76467593136338E-03
 cg2d: Sum(rhs),rhsMax =   1.90308436581027E-04  8.76590174554645E-03
 cg2d: Sum(rhs),rhsMax =   1.90385075334294E-04  8.76712734808778E-03
 cg2d: Sum(rhs),rhsMax =   1.90461623846604E-04  8.76835273411298E-03
 cg2d: Sum(rhs),rhsMax =   1.90538163892464E-04  8.76957790775228E-03
 cg2d: Sum(rhs),rhsMax =   1.90614681655961E-04  8.77080286647684E-03
 cg2d: Sum(rhs),rhsMax =   1.90691159291743E-04  8.77202760934311E-03
 cg2d: Sum(rhs),rhsMax =   1.90767629397104E-04  8.77325213617526E-03
 cg2d: Sum(rhs),rhsMax =   1.90844013034092E-04  8.77447644598085E-03
 cg2d: Sum(rhs),rhsMax =   1.90920370658446E-04  8.77570053963429E-03
 cg2d: Sum(rhs),rhsMax =   1.90996664585110E-04  8.77692441516726E-03
 cg2d: Sum(rhs),rhsMax =   1.91072896037925E-04  8.77814807241722E-03
 cg2d: Sum(rhs),rhsMax =   1.91149078521607E-04  8.77937151051615E-03
 cg2d: Sum(rhs),rhsMax =   1.91225196393740E-04  8.78059473101166E-03
 cg2d: Sum(rhs),rhsMax =   1.91301227890404E-04  8.78181773080524E-03
 cg2d: Sum(rhs),rhsMax =   1.91377178703241E-04  8.78304051133752E-03
 cg2d: Sum(rhs),rhsMax =   1.91453078183424E-04  8.78426307078919E-03
 cg2d: Sum(rhs),rhsMax =   1.91528902336174E-04  8.78548540843601E-03
 cg2d: Sum(rhs),rhsMax =   1.91604615001910E-04  8.78670752348157E-03
 cg2d: Sum(rhs),rhsMax =   1.91680261434448E-04  8.78792941680825E-03
 cg2d: Sum(rhs),rhsMax =   1.91755813384868E-04  8.78915108631075E-03
 cg2d: Sum(rhs),rhsMax =   1.91831297057927E-04  8.79037253460526E-03
 cg2d: Sum(rhs),rhsMax =   1.91906635456231E-04  8.79159375756010E-03
 cg2d: Sum(rhs),rhsMax =   1.91981908717026E-04  8.79281475728116E-03
 cg2d: Sum(rhs),rhsMax =   1.92057066430489E-04  8.79403553042245E-03
 cg2d: Sum(rhs),rhsMax =   1.92132160746044E-04  8.79525608077425E-03
 cg2d: Sum(rhs),rhsMax =   1.92207109363466E-04  8.79647640365880E-03
 cg2d: Sum(rhs),rhsMax =   1.92281976606874E-04  8.79769650051901E-03
 cg2d: Sum(rhs),rhsMax =   1.92356721411716E-04  8.79891636935248E-03
 cg2d: Sum(rhs),rhsMax =   1.92431392232670E-04  8.80013601267130E-03
 cg2d: Sum(rhs),rhsMax =   1.92505885751367E-04  8.80135542662461E-03
 cg2d: Sum(rhs),rhsMax =   1.92580311912252E-04  8.80257461290338E-03
 cg2d: Sum(rhs),rhsMax =   1.92654588292330E-04  8.80379356821849E-03
 cg2d: Sum(rhs),rhsMax =   1.92728776825773E-04  8.80501229722293E-03
 cg2d: Sum(rhs),rhsMax =   1.92802829779935E-04  8.80623079445243E-03
 cg2d: Sum(rhs),rhsMax =   1.92876774359144E-04  8.80744906180067E-03
 cg2d: Sum(rhs),rhsMax =   1.92950590578727E-04  8.80866709719099E-03
 cg2d: Sum(rhs),rhsMax =   1.93024300022378E-04  8.80988490259039E-03
 cg2d: Sum(rhs),rhsMax =   1.93097862465802E-04  8.81110247475811E-03
 cg2d: Sum(rhs),rhsMax =   1.93171313581758E-04  8.81231981610127E-03
 cg2d: Sum(rhs),rhsMax =   1.93244625800525E-04  8.81353692267823E-03
 cg2d: Sum(rhs),rhsMax =   1.93317822282836E-04  8.81475379804928E-03
 cg2d: Sum(rhs),rhsMax =   1.93390823152728E-04  8.81597043660890E-03
 cg2d: Sum(rhs),rhsMax =   1.93463738812233E-04  8.81718684427398E-03
 cg2d: Sum(rhs),rhsMax =   1.93536488613456E-04  8.81840301578926E-03
 cg2d: Sum(rhs),rhsMax =   1.93609129716450E-04  8.81961895147560E-03
 cg2d: Sum(rhs),rhsMax =   1.93681638325406E-04  8.82083465043573E-03
 cg2d: Sum(rhs),rhsMax =   1.93754005184850E-04  8.82205011444399E-03
 cg2d: Sum(rhs),rhsMax =   1.93826273448165E-04  8.82326534151956E-03
 cg2d: Sum(rhs),rhsMax =   1.93898358125976E-04  8.82448033170028E-03
(PID.TID 0000.0001)      cg2d_init_res =   7.25260032960094E-03
(PID.TID 0000.0001)      cg2d_iters(min,last) =      -1     385
(PID.TID 0000.0001)      cg2d_last_res =   9.72378617894708E-08
(PID.TID 0000.0001) // =======================================================
(PID.TID 0000.0001) // Begin MONITOR dynamic field statistics
(PID.TID 0000.0001) // =======================================================
(PID.TID 0000.0001) %MON time_tsnumber                =                  6192
(PID.TID 0000.0001) %MON time_secondsf                =   7.4304000000000E+06
(PID.TID 0000.0001) %MON dynstat_eta_max              =   8.8612921879155E-02
(PID.TID 0000.0001) %MON dynstat_eta_min              =  -1.8447786310547E-01
(PID.TID 0000.0001) %MON dynstat_eta_mean             =  -8.1466743537373E-09
(PID.TID 0000.0001) %MON dynstat_eta_sd               =   7.2111899954950E-02
(PID.TID 0000.0001) %MON dynstat_eta_del2             =   4.1708945718968E-07
(PID.TID 0000.0001) %MON dynstat_uvel_max             =   6.3011475543873E-02
(PID.TID 0000.0001) %MON dynstat_uvel_min             =  -8.5400436227865E-02
(PID.TID 0000.0001) %MON dynstat_uvel_mean            =  -4.7242570183223E-08
(PID.TID 0000.0001) %MON dynstat_uvel_sd              =   2.9242938547835E-02
(PID.TID 0000.0001) %MON dynstat_uvel_del2            =   7.2629808295582E-07
(PID.TID 0000.0001) %MON dynstat_vvel_max             =   6.7843766870343E-02
(PID.TID 0000.0001) %MON dynstat_vvel_min             =  -6.0036700569360E-02
(PID.TID 0000.0001) %MON dynstat_vvel_mean            =  -2.6141464359475E-07
(PID.TID 0000.0001) %MON dynstat_vvel_sd              =   2.6198796755441E-02
(PID.TID 0000.0001) %MON dynstat_vvel_del2            =   9.5063318696070E-07
(PID.TID 0000.0001) %MON dynstat_wvel_max             =   2.5077672031475E-08
(PID.TID 0000.0001) %MON dynstat_wvel_min             =  -2.1360943797044E-08
(PID.TID 0000.0001) %MON dynstat_wvel_mean            =  -5.3602844271636E-21
(PID.TID 0000.0001) %MON dynstat_wvel_sd              =   8.2318080599803E-09
(PID.TID 0000.0001) %MON dynstat_wvel_del2            =   7.0876150046777E-14
(PID.TID 0000.0001) %MON dynstat_theta_max            =   2.0000000000000E+01
(PID.TID 0000.0001) %MON dynstat_theta_min            =   2.0000000000000E+01
(PID.TID 0000.0001) %MON dynstat_theta_mean           =   1.9999999999999E+01
(PID.TID 0000.0001) %MON dynstat_theta_sd             =   1.1972645097557E-12
(PID.TID 0000.0001) %MON dynstat_theta_del2           =   0.0000000000000E+00
(PID.TID 0000.0001) %MON dynstat_salt_max             =   3.0000000000000E+01
(PID.TID 0000.0001) %MON dynstat_salt_min             =   3.0000000000000E+01
(PID.TID 0000.0001) %MON dynstat_salt_mean            =   2.9999999999998E+01
(PID.TID 0000.0001) %MON dynstat_salt_sd              =   2.1529444893531E-12
(PID.TID 0000.0001) %MON dynstat_salt_del2            =   0.0000000000000E+00
(PID.TID 0000.0001) %MON trAdv_CFL_u_max              =   2.0494207371917E-02
(PID.TID 0000.0001) %MON trAdv_CFL_v_max              =   1.6279670940884E-02
(PID.TID 0000.0001) %MON trAdv_CFL_w_max              =   6.3849395466158E-09
(PID.TID 0000.0001) %MON advcfl_uvel_max              =   2.0496104694688E-02
(PID.TID 0000.0001) %MON advcfl_vvel_max              =   1.6282504048882E-02
(PID.TID 0000.0001) %MON advcfl_wvel_max              =   1.2037282575108E-08
(PID.TID 0000.0001) %MON advcfl_W_hf_max              =   0.0000000000000E+00
(PID.TID 0000.0001) %MON pe_b_mean                    =   5.3204412660266E-06
(PID.TID 0000.0001) %MON ke_max                       =   3.6468857619532E-03
(PID.TID 0000.0001) %MON ke_mean                      =   7.6729370470047E-04
(PID.TID 0000.0001) %MON ke_vol                       =   7.2529629296391E+15
(PID.TID 0000.0001) %MON vort_r_min                   =  -2.7894140052405E-06
(PID.TID 0000.0001) %MON vort_r_max                   =   2.6105788134899E-06
(PID.TID 0000.0001) %MON vort_a_mean                  =   1.0615000000000E-04
(PID.TID 0000.0001) %MON vort_a_sd                    =   3.5911446431811E-06
(PID.TID 0000.0001) %MON vort_p_mean                  =   1.1210870169429E-04
(PID.TID 0000.0001) %MON vort_p_sd                    =   2.1058062916838E-05
(PID.TID 0000.0001) %MON surfExpan_theta_mean         =  -1.0764387581956E-19
(PID.TID 0000.0001) %MON surfExpan_salt_mean          =  -1.6135200665965E-19
(PID.TID 0000.0001) // =======================================================
(PID.TID 0000.0001) // End MONITOR dynamic field statistics
(PID.TID 0000.0001) // =======================================================
 cg2d: Sum(rhs),rhsMax =   1.93970321818131E-04  8.82569508332366E-03
 cg2d: Sum(rhs),rhsMax =   1.94042130888094E-04  8.82690959701690E-03
 cg2d: Sum(rhs),rhsMax =   1.94113810394220E-04  8.82812387157894E-03
 cg2d: Sum(rhs),rhsMax =   1.94185285003558E-04  8.82933790536892E-03
 cg2d: Sum(rhs),rhsMax =   1.94256686765808E-04  8.83055170211445E-03
 cg2d: Sum(rhs),rhsMax =   1.94327915394511E-04  8.83176525837005E-03
 cg2d: Sum(rhs),rhsMax =   1.94398984307094E-04  8.83297857447288E-03
 cg2d: Sum(rhs),rhsMax =   1.94469920876270E-04  8.83419164930824E-03
 cg2d: Sum(rhs),rhsMax =   1.94540717851646E-04  8.83540448211089E-03
 cg2d: Sum(rhs),rhsMax =   1.94611360071067E-04  8.83661707233267E-03
 cg2d: Sum(rhs),rhsMax =   1.94681881865335E-04  8.83782942078307E-03
 cg2d: Sum(rhs),rhsMax =   1.94752192802574E-04  8.83904152506255E-03
 cg2d: Sum(rhs),rhsMax =   1.94822415023825E-04  8.84025338899690E-03
 cg2d: Sum(rhs),rhsMax =   1.94892426727728E-04  8.84146500840670E-03
 cg2d: Sum(rhs),rhsMax =   1.94962302753340E-04  8.84267638188222E-03
 cg2d: Sum(rhs),rhsMax =   1.95032051828716E-04  8.84388751000950E-03
 cg2d: Sum(rhs),rhsMax =   1.95101653495138E-04  8.84509839484113E-03
 cg2d: Sum(rhs),rhsMax =   1.95171054415929E-04  8.84630903306280E-03
 cg2d: Sum(rhs),rhsMax =   1.95240314466523E-04  8.84751942472340E-03
 cg2d: Sum(rhs),rhsMax =   1.95309450065375E-04  8.84872957022370E-03
 cg2d: Sum(rhs),rhsMax =   1.95378430598789E-04  8.84993946965143E-03
 cg2d: Sum(rhs),rhsMax =   1.95447239469466E-04  8.85114912099734E-03
 cg2d: Sum(rhs),rhsMax =   1.95515895485518E-04  8.85235852377014E-03
 cg2d: Sum(rhs),rhsMax =   1.95584402755833E-04  8.85356767685347E-03
 cg2d: Sum(rhs),rhsMax =   1.95652745398518E-04  8.85477658460489E-03
 cg2d: Sum(rhs),rhsMax =   1.95720911363184E-04  8.85598524199999E-03
 cg2d: Sum(rhs),rhsMax =   1.95788938241398E-04  8.85719364882745E-03
 cg2d: Sum(rhs),rhsMax =   1.95856820911120E-04  8.85840180471690E-03
 cg2d: Sum(rhs),rhsMax =   1.95924534799913E-04  8.85960971214260E-03
 cg2d: Sum(rhs),rhsMax =   1.95992056286546E-04  8.86081736740030E-03
 cg2d: Sum(rhs),rhsMax =   1.96059457205432E-04  8.86202477154070E-03
 cg2d: Sum(rhs),rhsMax =   1.96126679154418E-04  8.86323192318307E-03
 cg2d: Sum(rhs),rhsMax =   1.96193750589541E-04  8.86443882390760E-03
 cg2d: Sum(rhs),rhsMax =   1.96260666056026E-04  8.86564547123073E-03
 cg2d: Sum(rhs),rhsMax =   1.96327439099935E-04  8.86685186571965E-03
 cg2d: Sum(rhs),rhsMax =   1.96394034988589E-04  8.86805800643254E-03
 cg2d: Sum(rhs),rhsMax =   1.96460481541592E-04  8.86926389257349E-03
 cg2d: Sum(rhs),rhsMax =   1.96526699970856E-04  8.87046952292476E-03
 cg2d: Sum(rhs),rhsMax =   1.96592835690819E-04  8.87167489972169E-03
 cg2d: Sum(rhs),rhsMax =   1.96658784289974E-04  8.87288002079341E-03
 cg2d: Sum(rhs),rhsMax =   1.96724599183573E-04  8.87408488688475E-03
 cg2d: Sum(rhs),rhsMax =   1.96790228368167E-04  8.87528949624029E-03
 cg2d: Sum(rhs),rhsMax =   1.96855722265032E-04  8.87649384998485E-03
 cg2d: Sum(rhs),rhsMax =   1.96921067053759E-04  8.87769794604950E-03
 cg2d: Sum(rhs),rhsMax =   1.96986228045613E-04  8.87890178559576E-03
 cg2d: Sum(rhs),rhsMax =   1.97051211839699E-04  8.88010536616359E-03
 cg2d: Sum(rhs),rhsMax =   1.97116065704390E-04  8.88130868959825E-03
 cg2d: Sum(rhs),rhsMax =   1.97180696711428E-04  8.88251175198316E-03
 cg2d: Sum(rhs),rhsMax =   1.97245190469857E-04  8.88371455896007E-03
 cg2d: Sum(rhs),rhsMax =   1.97309539748997E-04  8.88491710539327E-03
 cg2d: Sum(rhs),rhsMax =   1.97373736969830E-04  8.88611939193397E-03
 cg2d: Sum(rhs),rhsMax =   1.97437760979838E-04  8.88732141769997E-03
 cg2d: Sum(rhs),rhsMax =   1.97501651850550E-04  8.88852318181724E-03
 cg2d: Sum(rhs),rhsMax =   1.97565359260762E-04  8.88972468373409E-03
 cg2d: Sum(rhs),rhsMax =   1.97628916768963E-04  8.89092592731455E-03
 cg2d: Sum(rhs),rhsMax =   1.97692309452933E-04  8.89212690745438E-03
 cg2d: Sum(rhs),rhsMax =   1.97755560848596E-04  8.89332762534332E-03
 cg2d: Sum(rhs),rhsMax =   1.97818601866106E-04  8.89452807921641E-03
 cg2d: Sum(rhs),rhsMax =   1.97881522062801E-04  8.89572827307768E-03
 cg2d: Sum(rhs),rhsMax =   1.97944280059176E-04  8.89692820135508E-03
 cg2d: Sum(rhs),rhsMax =   1.98006883626985E-04  8.89812786722784E-03
 cg2d: Sum(rhs),rhsMax =   1.98069320196958E-04  8.89932726764131E-03
 cg2d: Sum(rhs),rhsMax =   1.98131601313751E-04  8.90052640524669E-03
 cg2d: Sum(rhs),rhsMax =   1.98193721886022E-04  8.90172527618661E-03
 cg2d: Sum(rhs),rhsMax =   1.98255690312303E-04  8.90292388224664E-03
 cg2d: Sum(rhs),rhsMax =   1.98317480399892E-04  8.90412222226770E-03
 cg2d: Sum(rhs),rhsMax =   1.98379161034353E-04  8.90532029704279E-03
 cg2d: Sum(rhs),rhsMax =   1.98440663474341E-04  8.90651810420505E-03
 cg2d: Sum(rhs),rhsMax =   1.98501997985131E-04  8.90771564508095E-03
 cg2d: Sum(rhs),rhsMax =   1.98563179367254E-04  8.90891291793845E-03
 cg2d: Sum(rhs),rhsMax =   1.98624200186353E-04  8.91010992391663E-03
 cg2d: Sum(rhs),rhsMax =   1.98685047090566E-04  8.91130666046576E-03
(PID.TID 0000.0001)      cg2d_init_res =   7.10965820976538E-03
(PID.TID 0000.0001)      cg2d_iters(min,last) =      -1     385
(PID.TID 0000.0001)      cg2d_last_res =   9.57566191709933E-08
(PID.TID 0000.0001) // =======================================================
(PID.TID 0000.0001) // Begin MONITOR dynamic field statistics
(PID.TID 0000.0001) // =======================================================
(PID.TID 0000.0001) %MON time_tsnumber                =                  6264
(PID.TID 0000.0001) %MON time_secondsf                =   7.5168000000000E+06
(PID.TID 0000.0001) %MON dynstat_eta_max              =   8.9438985353852E-02
(PID.TID 0000.0001) %MON dynstat_eta_min              =  -1.8621517558313E-01
(PID.TID 0000.0001) %MON dynstat_eta_mean             =  -8.4293435736016E-09
(PID.TID 0000.0001) %MON dynstat_eta_sd               =   7.2687644678316E-02
(PID.TID 0000.0001) %MON dynstat_eta_del2             =   4.2087286927782E-07
(PID.TID 0000.0001) %MON dynstat_uvel_max             =   6.4147422767273E-02
(PID.TID 0000.0001) %MON dynstat_uvel_min             =  -8.5961775625080E-02
(PID.TID 0000.0001) %MON dynstat_uvel_mean            =  -7.2368927764852E-08
(PID.TID 0000.0001) %MON dynstat_uvel_sd              =   2.9522990190964E-02
(PID.TID 0000.0001) %MON dynstat_uvel_del2            =   7.3071368940237E-07
(PID.TID 0000.0001) %MON dynstat_vvel_max             =   6.8701677349639E-02
(PID.TID 0000.0001) %MON dynstat_vvel_min             =  -6.0637447466742E-02
(PID.TID 0000.0001) %MON dynstat_vvel_mean            =  -2.4134182458840E-07
(PID.TID 0000.0001) %MON dynstat_vvel_sd              =   2.6389747739765E-02
(PID.TID 0000.0001) %MON dynstat_vvel_del2            =   9.5939989116543E-07
(PID.TID 0000.0001) %MON dynstat_wvel_max             =   2.4406258181552E-08
(PID.TID 0000.0001) %MON dynstat_wvel_min             =  -2.1479338430800E-08
(PID.TID 0000.0001) %MON dynstat_wvel_mean            =  -1.3953848970162E-21
(PID.TID 0000.0001) %MON dynstat_wvel_sd              =   8.1419253186316E-09
(PID.TID 0000.0001) %MON dynstat_wvel_del2            =   7.0283379778613E-14
(PID.TID 0000.0001) %MON dynstat_theta_max            =   2.0000000000000E+01
(PID.TID 0000.0001) %MON dynstat_theta_min            =   2.0000000000000E+01
(PID.TID 0000.0001) %MON dynstat_theta_mean           =   1.9999999999999E+01
(PID.TID 0000.0001) %MON dynstat_theta_sd             =   1.1972645097557E-12
(PID.TID 0000.0001) %MON dynstat_theta_del2           =   0.0000000000000E+00
(PID.TID 0000.0001) %MON dynstat_salt_max             =   3.0000000000000E+01
(PID.TID 0000.0001) %MON dynstat_salt_min             =   3.0000000000000E+01
(PID.TID 0000.0001) %MON dynstat_salt_mean            =   2.9999999999998E+01
(PID.TID 0000.0001) %MON dynstat_salt_sd              =   2.1529444893531E-12
(PID.TID 0000.0001) %MON dynstat_salt_del2            =   0.0000000000000E+00
(PID.TID 0000.0001) %MON trAdv_CFL_u_max              =   2.0628980737917E-02
(PID.TID 0000.0001) %MON trAdv_CFL_v_max              =   1.6485516603628E-02
(PID.TID 0000.0001) %MON trAdv_CFL_w_max              =   6.2112955714165E-09
(PID.TID 0000.0001) %MON advcfl_uvel_max              =   2.0630826150019E-02
(PID.TID 0000.0001) %MON advcfl_vvel_max              =   1.6488402563913E-02
(PID.TID 0000.0001) %MON advcfl_wvel_max              =   1.1715003927145E-08
(PID.TID 0000.0001) %MON advcfl_W_hf_max              =   0.0000000000000E+00
(PID.TID 0000.0001) %MON pe_b_mean                    =   5.4057377126718E-06
(PID.TID 0000.0001) %MON ke_max                       =   3.6949731965949E-03
(PID.TID 0000.0001) %MON ke_mean                      =   7.8048372753349E-04
(PID.TID 0000.0001) %MON ke_vol                       =   7.2529629296391E+15
(PID.TID 0000.0001) %MON vort_r_min                   =  -2.8173676446850E-06
(PID.TID 0000.0001) %MON vort_r_max                   =   2.6429813911093E-06
(PID.TID 0000.0001) %MON vort_a_mean                  =   1.0615000000000E-04
(PID.TID 0000.0001) %MON vort_a_sd                    =   3.5916176972941E-06
(PID.TID 0000.0001) %MON vort_p_mean                  =   1.1210870169429E-04
(PID.TID 0000.0001) %MON vort_p_sd                    =   2.1058118144400E-05
(PID.TID 0000.0001) %MON surfExpan_theta_mean         =  -2.8221119450631E-20
(PID.TID 0000.0001) %MON surfExpan_salt_mean          =  -4.2168107417742E-20
(PID.TID 0000.0001) // =======================================================
(PID.TID 0000.0001) // End MONITOR dynamic field statistics
(PID.TID 0000.0001) // =======================================================
 cg2d: Sum(rhs),rhsMax =   1.98745782082685E-04  8.91250313050816E-03
 cg2d: Sum(rhs),rhsMax =   1.98806277492821E-04  8.91369932902911E-03
 cg2d: Sum(rhs),rhsMax =   1.98866667095995E-04  8.91489526138670E-03
 cg2d: Sum(rhs),rhsMax =   1.98926896706010E-04  8.91609092365512E-03
 cg2d: Sum(rhs),rhsMax =   1.98986986152181E-04  8.91728631598643E-03
 cg2d: Sum(rhs),rhsMax =   1.99046926863218E-04  8.91848143792572E-03
 cg2d: Sum(rhs),rhsMax =   1.99106705967851E-04  8.91967628901079E-03
 cg2d: Sum(rhs),rhsMax =   1.99166318906560E-04  8.92087086924906E-03
 cg2d: Sum(rhs),rhsMax =   1.99225812089312E-04  8.92206517751114E-03
 cg2d: Sum(rhs),rhsMax =   1.99285148593050E-04  8.92325921417516E-03
 cg2d: Sum(rhs),rhsMax =   1.99344318262131E-04  8.92445297880228E-03
 cg2d: Sum(rhs),rhsMax =   1.99403301861771E-04  8.92564646940190E-03
 cg2d: Sum(rhs),rhsMax =   1.99462166224689E-04  8.92683969074118E-03
 cg2d: Sum(rhs),rhsMax =   1.99520851035364E-04  8.92803263861149E-03
 cg2d: Sum(rhs),rhsMax =   1.99579429577906E-04  8.92922531125859E-03
 cg2d: Sum(rhs),rhsMax =   1.99637850366073E-04  8.93041770946487E-03
 cg2d: Sum(rhs),rhsMax =   1.99696117952688E-04  8.93160983549275E-03
 cg2d: Sum(rhs),rhsMax =   1.99754246471199E-04  8.93280168632794E-03
 cg2d: Sum(rhs),rhsMax =   1.99812202778628E-04  8.93399326208606E-03
 cg2d: Sum(rhs),rhsMax =   1.99869993748639E-04  8.93518456156407E-03
 cg2d: Sum(rhs),rhsMax =   1.99927678307087E-04  8.93637558750379E-03
 cg2d: Sum(rhs),rhsMax =   1.99985198178617E-04  8.93756633607383E-03
 cg2d: Sum(rhs),rhsMax =   2.00042567689407E-04  8.93875680916934E-03
 cg2d: Sum(rhs),rhsMax =   2.00099784468761E-04  8.93994700448772E-03
 cg2d: Sum(rhs),rhsMax =   2.00156870881171E-04  8.94113692525915E-03
 cg2d: Sum(rhs),rhsMax =   2.00213789425819E-04  8.94232656701178E-03
 cg2d: Sum(rhs),rhsMax =   2.00270574366291E-04  8.94351593259397E-03
 cg2d: Sum(rhs),rhsMax =   2.00327208127214E-04  8.94470501921800E-03
 cg2d: Sum(rhs),rhsMax =   2.00383694167963E-04  8.94589382930977E-03
 cg2d: Sum(rhs),rhsMax =   2.00440071632951E-04  8.94708235972651E-03
 cg2d: Sum(rhs),rhsMax =   2.00496297164317E-04  8.94827061141073E-03
 cg2d: Sum(rhs),rhsMax =   2.00552378837045E-04  8.94945858342261E-03
 cg2d: Sum(rhs),rhsMax =   2.00608339862188E-04  8.95064627652211E-03
 cg2d: Sum(rhs),rhsMax =   2.00664125896248E-04  8.95183368895355E-03
 cg2d: Sum(rhs),rhsMax =   2.00719795911091E-04  8.95302082223472E-03
 cg2d: Sum(rhs),rhsMax =   2.00775291353464E-04  8.95420767256030E-03
 cg2d: Sum(rhs),rhsMax =   2.00830667071765E-04  8.95539424558955E-03
 cg2d: Sum(rhs),rhsMax =   2.00885898444580E-04  8.95658053656127E-03
 cg2d: Sum(rhs),rhsMax =   2.00941011088304E-04  8.95776654587747E-03
 cg2d: Sum(rhs),rhsMax =   2.00995963773688E-04  8.95895227325828E-03
 cg2d: Sum(rhs),rhsMax =   2.01050803808783E-04  8.96013771878314E-03
 cg2d: Sum(rhs),rhsMax =   2.01105504594635E-04  8.96132288214644E-03
 cg2d: Sum(rhs),rhsMax =   2.01160065637153E-04  8.96250776270685E-03
 cg2d: Sum(rhs),rhsMax =   2.01214488284755E-04  8.96369236085213E-03
 cg2d: Sum(rhs),rhsMax =   2.01268793041600E-04  8.96487667501037E-03
 cg2d: Sum(rhs),rhsMax =   2.01322955458577E-04  8.96606070690635E-03
 cg2d: Sum(rhs),rhsMax =   2.01376954819152E-04  8.96724445392882E-03
 cg2d: Sum(rhs),rhsMax =   2.01430859918285E-04  8.96842791725061E-03
 cg2d: Sum(rhs),rhsMax =   2.01484607175579E-04  8.96961109332449E-03
 cg2d: Sum(rhs),rhsMax =   2.01538252933718E-04  8.97079398906573E-03
 cg2d: Sum(rhs),rhsMax =   2.01591754679556E-04  8.97197659823373E-03
 cg2d: Sum(rhs),rhsMax =   2.01645113725533E-04  8.97315892297007E-03
 cg2d: Sum(rhs),rhsMax =   2.01698368243538E-04  8.97434096099529E-03
 cg2d: Sum(rhs),rhsMax =   2.01751500060264E-04  8.97552271341755E-03
 cg2d: Sum(rhs),rhsMax =   2.01804493253119E-04  8.97670417870405E-03
 cg2d: Sum(rhs),rhsMax =   2.01857367416732E-04  8.97788535947385E-03
 cg2d: Sum(rhs),rhsMax =   2.01910097512050E-04  8.97906625146657E-03
 cg2d: Sum(rhs),rhsMax =   2.01962706046206E-04  8.98024685888874E-03
 cg2d: Sum(rhs),rhsMax =   2.02015178129913E-04  8.98142717690493E-03
 cg2d: Sum(rhs),rhsMax =   2.02067547730340E-04  8.98260721008366E-03
 cg2d: Sum(rhs),rhsMax =   2.02119795216749E-04  8.98378695371380E-03
 cg2d: Sum(rhs),rhsMax =   2.02171917421959E-04  8.98496640988699E-03
 cg2d: Sum(rhs),rhsMax =   2.02223920314000E-04  8.98614557679825E-03
 cg2d: Sum(rhs),rhsMax =   2.02275825334863E-04  8.98732445618527E-03
 cg2d: Sum(rhs),rhsMax =   2.02327578633695E-04  8.98850304573752E-03
 cg2d: Sum(rhs),rhsMax =   2.02379230749642E-04  8.98968134669685E-03
 cg2d: Sum(rhs),rhsMax =   2.02430717470488E-04  8.99085935533793E-03
 cg2d: Sum(rhs),rhsMax =   2.02482130882307E-04  8.99203707837024E-03
 cg2d: Sum(rhs),rhsMax =   2.02533420884537E-04  8.99321450929327E-03
 cg2d: Sum(rhs),rhsMax =   2.02584600206191E-04  8.99439165243120E-03
 cg2d: Sum(rhs),rhsMax =   2.02635649990039E-04  8.99556850337901E-03
 cg2d: Sum(rhs),rhsMax =   2.02686609365250E-04  8.99674506477565E-03
(PID.TID 0000.0001)      cg2d_init_res =   6.96563207325846E-03
(PID.TID 0000.0001)      cg2d_iters(min,last) =      -1     385
(PID.TID 0000.0001)      cg2d_last_res =   9.38692098624177E-08
(PID.TID 0000.0001) // =======================================================
(PID.TID 0000.0001) // Begin MONITOR dynamic field statistics
(PID.TID 0000.0001) // =======================================================
(PID.TID 0000.0001) %MON time_tsnumber                =                  6336
(PID.TID 0000.0001) %MON time_secondsf                =   7.6032000000000E+06
(PID.TID 0000.0001) %MON dynstat_eta_max              =   9.0250473461787E-02
(PID.TID 0000.0001) %MON dynstat_eta_min              =  -1.8794986751887E-01
(PID.TID 0000.0001) %MON dynstat_eta_mean             =  -8.6810509006665E-09
(PID.TID 0000.0001) %MON dynstat_eta_sd               =   7.3256498162547E-02
(PID.TID 0000.0001) %MON dynstat_eta_del2             =   4.2464214559466E-07
(PID.TID 0000.0001) %MON dynstat_uvel_max             =   6.5254918406374E-02
(PID.TID 0000.0001) %MON dynstat_uvel_min             =  -8.6509264839684E-02
(PID.TID 0000.0001) %MON dynstat_uvel_mean            =  -9.3507736297690E-08
(PID.TID 0000.0001) %MON dynstat_uvel_sd              =   2.9795544695327E-02
(PID.TID 0000.0001) %MON dynstat_uvel_del2            =   7.3463914921525E-07
(PID.TID 0000.0001) %MON dynstat_vvel_max             =   6.9575651868404E-02
(PID.TID 0000.0001) %MON dynstat_vvel_min             =  -6.1230641296035E-02
(PID.TID 0000.0001) %MON dynstat_vvel_mean            =  -2.1787000632323E-07
(PID.TID 0000.0001) %MON dynstat_vvel_sd              =   2.6586427354750E-02
(PID.TID 0000.0001) %MON dynstat_vvel_del2            =   9.6811697610616E-07
(PID.TID 0000.0001) %MON dynstat_wvel_max             =   2.3538008082542E-08
(PID.TID 0000.0001) %MON dynstat_wvel_min             =  -2.1582106244750E-08
(PID.TID 0000.0001) %MON dynstat_wvel_mean            =   1.5189285015459E-21
(PID.TID 0000.0001) %MON dynstat_wvel_sd              =   8.0631931799904E-09
(PID.TID 0000.0001) %MON dynstat_wvel_del2            =   6.9624223491106E-14
(PID.TID 0000.0001) %MON dynstat_theta_max            =   2.0000000000000E+01
(PID.TID 0000.0001) %MON dynstat_theta_min            =   2.0000000000000E+01
(PID.TID 0000.0001) %MON dynstat_theta_mean           =   1.9999999999999E+01
(PID.TID 0000.0001) %MON dynstat_theta_sd             =   1.1972645097557E-12
(PID.TID 0000.0001) %MON dynstat_theta_del2           =   0.0000000000000E+00
(PID.TID 0000.0001) %MON dynstat_salt_max             =   3.0000000000000E+01
(PID.TID 0000.0001) %MON dynstat_salt_min             =   3.0000000000000E+01
(PID.TID 0000.0001) %MON dynstat_salt_mean            =   2.9999999999998E+01
(PID.TID 0000.0001) %MON dynstat_salt_sd              =   2.1529444893531E-12
(PID.TID 0000.0001) %MON dynstat_salt_del2            =   0.0000000000000E+00
(PID.TID 0000.0001) %MON trAdv_CFL_u_max              =   2.0760396143890E-02
(PID.TID 0000.0001) %MON trAdv_CFL_v_max              =   1.6695216772048E-02
(PID.TID 0000.0001) %MON trAdv_CFL_w_max              =   5.9862897203733E-09
(PID.TID 0000.0001) %MON advcfl_uvel_max              =   2.0762223561524E-02
(PID.TID 0000.0001) %MON advcfl_vvel_max              =   1.6698156448417E-02
(PID.TID 0000.0001) %MON advcfl_wvel_max              =   1.1298243879620E-08
(PID.TID 0000.0001) %MON advcfl_W_hf_max              =   0.0000000000000E+00
(PID.TID 0000.0001) %MON pe_b_mean                    =   5.4906793972035E-06
(PID.TID 0000.0001) %MON ke_max                       =   3.7422896041596E-03
(PID.TID 0000.0001) %MON ke_mean                      =   7.9371732252345E-04
(PID.TID 0000.0001) %MON ke_vol                       =   7.2529629296391E+15
(PID.TID 0000.0001) %MON vort_r_min                   =  -2.8448835332712E-06
(PID.TID 0000.0001) %MON vort_r_max                   =   2.6739660960872E-06
(PID.TID 0000.0001) %MON vort_a_mean                  =   1.0615000000000E-04
(PID.TID 0000.0001) %MON vort_a_sd                    =   3.5920902438551E-06
(PID.TID 0000.0001) %MON vort_p_mean                  =   1.1210870169429E-04
(PID.TID 0000.0001) %MON vort_p_sd                    =   2.1058183343688E-05
(PID.TID 0000.0001) %MON surfExpan_theta_mean         =   2.9970663475682E-20
(PID.TID 0000.0001) %MON surfExpan_salt_mean          =   4.5092289417976E-20
(PID.TID 0000.0001) // =======================================================
(PID.TID 0000.0001) // End MONITOR dynamic field statistics
(PID.TID 0000.0001) // =======================================================
 cg2d: Sum(rhs),rhsMax =   2.02737453744928E-04  8.99792133380199E-03
 cg2d: Sum(rhs),rhsMax =   2.02788175037967E-04  8.99909731250506E-03
 cg2d: Sum(rhs),rhsMax =   2.02838789001240E-04  9.00027299875715E-03
 cg2d: Sum(rhs),rhsMax =   2.02889269212424E-04  9.00144839307966E-03
 cg2d: Sum(rhs),rhsMax =   2.02939650175723E-04  9.00262349676368E-03
 cg2d: Sum(rhs),rhsMax =   2.02989911863981E-04  9.00379830713281E-03
 cg2d: Sum(rhs),rhsMax =   2.03040073165238E-04  9.00497282651403E-03
 cg2d: Sum(rhs),rhsMax =   2.03090118760097E-04  9.00614705251986E-03
 cg2d: Sum(rhs),rhsMax =   2.03140072528848E-04  9.00732098638954E-03
 cg2d: Sum(rhs),rhsMax =   2.03189908735243E-04  9.00849462711275E-03
 cg2d: Sum(rhs),rhsMax =   2.03239654717396E-04  9.00966797337695E-03
 cg2d: Sum(rhs),rhsMax =   2.03289257567447E-04  9.01084102446964E-03
 cg2d: Sum(rhs),rhsMax =   2.03338787205848E-04  9.01201378390130E-03
 cg2d: Sum(rhs),rhsMax =   2.03388210047305E-04  9.01318624852587E-03
 cg2d: Sum(rhs),rhsMax =   2.03437534539559E-04  9.01435841981486E-03
 cg2d: Sum(rhs),rhsMax =   2.03486745301164E-04  9.01553029626520E-03
 cg2d: Sum(rhs),rhsMax =   2.03535876882991E-04  9.01670187799821E-03
 cg2d: Sum(rhs),rhsMax =   2.03584889327977E-04  9.01787316436117E-03
 cg2d: Sum(rhs),rhsMax =   2.03633809875725E-04  9.01904415632545E-03
 cg2d: Sum(rhs),rhsMax =   2.03682612313927E-04  9.02021485165707E-03
 cg2d: Sum(rhs),rhsMax =   2.03731330785320E-04  9.02138525306478E-03
 cg2d: Sum(rhs),rhsMax =   2.03779898665110E-04  9.02255535702526E-03
 cg2d: Sum(rhs),rhsMax =   2.03828405724926E-04  9.02372516638846E-03
 cg2d: Sum(rhs),rhsMax =   2.03876834226364E-04  9.02489467925038E-03
 cg2d: Sum(rhs),rhsMax =   2.03925150034225E-04  9.02606389437131E-03
 cg2d: Sum(rhs),rhsMax =   2.03973379368802E-04  9.02723281231885E-03
 cg2d: Sum(rhs),rhsMax =   2.04021507789856E-04  9.02840143448946E-03
 cg2d: Sum(rhs),rhsMax =   2.04069563773732E-04  9.02956975844480E-03
 cg2d: Sum(rhs),rhsMax =   2.04127664185006E-04  9.03073779666316E-03
 cg2d: Sum(rhs),rhsMax =   2.04185653450158E-04  9.03190552705918E-03
 cg2d: Sum(rhs),rhsMax =   2.04243543348649E-04  9.03307296006519E-03
 cg2d: Sum(rhs),rhsMax =   2.04301335773408E-04  9.03424009290319E-03
 cg2d: Sum(rhs),rhsMax =   2.04359020843254E-04  9.03540692905351E-03
 cg2d: Sum(rhs),rhsMax =   2.04416624242088E-04  9.03657346688649E-03
 cg2d: Sum(rhs),rhsMax =   2.04474103845427E-04  9.03773970766818E-03
 cg2d: Sum(rhs),rhsMax =   2.04531494060457E-04  9.03890564801722E-03
 cg2d: Sum(rhs),rhsMax =   2.04588821693915E-04  9.04007128928655E-03
 cg2d: Sum(rhs),rhsMax =   2.04645996598260E-04  9.04123663281864E-03
 cg2d: Sum(rhs),rhsMax =   2.04703086911621E-04  9.04240167606872E-03
 cg2d: Sum(rhs),rhsMax =   2.04760074689038E-04  9.04356642206044E-03
 cg2d: Sum(rhs),rhsMax =   2.04816988755284E-04  9.04473086561756E-03
 cg2d: Sum(rhs),rhsMax =   2.04873783879149E-04  9.04589501134584E-03
 cg2d: Sum(rhs),rhsMax =   2.04930499838054E-04  9.04705885428489E-03
 cg2d: Sum(rhs),rhsMax =   2.04987098026924E-04  9.04822240074613E-03
 cg2d: Sum(rhs),rhsMax =   2.05043591965747E-04  9.04938564389715E-03
 cg2d: Sum(rhs),rhsMax =   2.05100009947482E-04  9.05054859003431E-03
 cg2d: Sum(rhs),rhsMax =   2.05156341762283E-04  9.05171123016156E-03
 cg2d: Sum(rhs),rhsMax =   2.05212581379963E-04  9.05287357592649E-03
 cg2d: Sum(rhs),rhsMax =   2.05268730158532E-04  9.05403561435944E-03
 cg2d: Sum(rhs),rhsMax =   2.05324782631815E-04  9.05519735775617E-03
 cg2d: Sum(rhs),rhsMax =   2.05380729869387E-04  9.05635879376573E-03
 cg2d: Sum(rhs),rhsMax =   2.05436624584618E-04  9.05751993426076E-03
 cg2d: Sum(rhs),rhsMax =   2.05492426259524E-04  9.05868076728521E-03
 cg2d: Sum(rhs),rhsMax =   2.05548130612141E-04  9.05984130355304E-03
 cg2d: Sum(rhs),rhsMax =   2.05603737774783E-04  9.06100153245271E-03
 cg2d: Sum(rhs),rhsMax =   2.05659260731008E-04  9.06216146559461E-03
 cg2d: Sum(rhs),rhsMax =   2.05714693091873E-04  9.06332109104055E-03
 cg2d: Sum(rhs),rhsMax =   2.05770046736074E-04  9.06448041839215E-03
 cg2d: Sum(rhs),rhsMax =   2.05825317261672E-04  9.06563943714300E-03
 cg2d: Sum(rhs),rhsMax =   2.05880513719758E-04  9.06679816042224E-03
 cg2d: Sum(rhs),rhsMax =   2.05935594449903E-04  9.06795657466771E-03
 cg2d: Sum(rhs),rhsMax =   2.05990625352575E-04  9.06911469100973E-03
 cg2d: Sum(rhs),rhsMax =   2.06045565081199E-04  9.07027249830871E-03
 cg2d: Sum(rhs),rhsMax =   2.06100419794424E-04  9.07143000914334E-03
 cg2d: Sum(rhs),rhsMax =   2.06155213844832E-04  9.07258721020719E-03
 cg2d: Sum(rhs),rhsMax =   2.06209896923973E-04  9.07374411385663E-03
 cg2d: Sum(rhs),rhsMax =   2.06264494299493E-04  9.07490070896966E-03
 cg2d: Sum(rhs),rhsMax =   2.06319027510471E-04  9.07605700474077E-03
 cg2d: Sum(rhs),rhsMax =   2.06373481374001E-04  9.07721299023178E-03
 cg2d: Sum(rhs),rhsMax =   2.06427854675138E-04  9.07836867704996E-03
 cg2d: Sum(rhs),rhsMax =   2.06482141808630E-04  9.07952405487857E-03
 cg2d: Sum(rhs),rhsMax =   2.06536372127974E-04  9.08067913416984E-03
(PID.TID 0000.0001)      cg2d_init_res =   6.82400288222100E-03
(PID.TID 0000.0001)      cg2d_iters(min,last) =      -1     384
(PID.TID 0000.0001)      cg2d_last_res =   9.87254341616098E-08
(PID.TID 0000.0001) // =======================================================
(PID.TID 0000.0001) // Begin MONITOR dynamic field statistics
(PID.TID 0000.0001) // =======================================================
(PID.TID 0000.0001) %MON time_tsnumber                =                  6408
(PID.TID 0000.0001) %MON time_secondsf                =   7.6896000000000E+06
(PID.TID 0000.0001) %MON dynstat_eta_max              =   9.1064454923038E-02
(PID.TID 0000.0001) %MON dynstat_eta_min              =  -1.8967457583293E-01
(PID.TID 0000.0001) %MON dynstat_eta_mean             =  -8.9285315929662E-09
(PID.TID 0000.0001) %MON dynstat_eta_sd               =   7.3817918652967E-02
(PID.TID 0000.0001) %MON dynstat_eta_del2             =   4.2838145907208E-07
(PID.TID 0000.0001) %MON dynstat_uvel_max             =   6.6318248987626E-02
(PID.TID 0000.0001) %MON dynstat_uvel_min             =  -8.7049341075743E-02
(PID.TID 0000.0001) %MON dynstat_uvel_mean            =  -1.0952926899464E-07
(PID.TID 0000.0001) %MON dynstat_uvel_sd              =   3.0058338419388E-02
(PID.TID 0000.0001) %MON dynstat_uvel_del2            =   7.3805180934677E-07
(PID.TID 0000.0001) %MON dynstat_vvel_max             =   7.0465476832371E-02
(PID.TID 0000.0001) %MON dynstat_vvel_min             =  -6.1815161040613E-02
(PID.TID 0000.0001) %MON dynstat_vvel_mean            =  -1.9184674077676E-07
(PID.TID 0000.0001) %MON dynstat_vvel_sd              =   2.6790639356248E-02
(PID.TID 0000.0001) %MON dynstat_vvel_del2            =   9.7669409348085E-07
(PID.TID 0000.0001) %MON dynstat_wvel_max             =   2.2491614256287E-08
(PID.TID 0000.0001) %MON dynstat_wvel_min             =  -2.1674766330980E-08
(PID.TID 0000.0001) %MON dynstat_wvel_mean            =   1.0692011959081E-21
(PID.TID 0000.0001) %MON dynstat_wvel_sd              =   7.9942482680974E-09
(PID.TID 0000.0001) %MON dynstat_wvel_del2            =   6.9004976473679E-14
(PID.TID 0000.0001) %MON dynstat_theta_max            =   2.0000000000000E+01
(PID.TID 0000.0001) %MON dynstat_theta_min            =   2.0000000000000E+01
(PID.TID 0000.0001) %MON dynstat_theta_mean           =   1.9999999999999E+01
(PID.TID 0000.0001) %MON dynstat_theta_sd             =   1.1972645097557E-12
(PID.TID 0000.0001) %MON dynstat_theta_del2           =   0.0000000000000E+00
(PID.TID 0000.0001) %MON dynstat_salt_max             =   3.0000000000000E+01
(PID.TID 0000.0001) %MON dynstat_salt_min             =   3.0000000000000E+01
(PID.TID 0000.0001) %MON dynstat_salt_mean            =   2.9999999999998E+01
(PID.TID 0000.0001) %MON dynstat_salt_sd              =   2.1529444893531E-12
(PID.TID 0000.0001) %MON dynstat_salt_del2            =   0.0000000000000E+00
(PID.TID 0000.0001) %MON trAdv_CFL_u_max              =   2.0890068036987E-02
(PID.TID 0000.0001) %MON trAdv_CFL_v_max              =   1.6908723301247E-02
(PID.TID 0000.0001) %MON trAdv_CFL_w_max              =   5.7154166552342E-09
(PID.TID 0000.0001) %MON advcfl_uvel_max              =   2.0891841858178E-02
(PID.TID 0000.0001) %MON advcfl_vvel_max              =   1.6911714439769E-02
(PID.TID 0000.0001) %MON advcfl_wvel_max              =   1.0795974843018E-08
(PID.TID 0000.0001) %MON advcfl_W_hf_max              =   0.0000000000000E+00
(PID.TID 0000.0001) %MON pe_b_mean                    =   5.5751604215374E-06
(PID.TID 0000.0001) %MON ke_max                       =   3.7891810912530E-03
(PID.TID 0000.0001) %MON ke_mean                      =   8.0697211908248E-04
(PID.TID 0000.0001) %MON ke_vol                       =   7.2529629296391E+15
(PID.TID 0000.0001) %MON vort_r_min                   =  -2.8719133925098E-06
(PID.TID 0000.0001) %MON vort_r_max                   =   2.7036864961625E-06
(PID.TID 0000.0001) %MON vort_a_mean                  =   1.0615000000000E-04
(PID.TID 0000.0001) %MON vort_a_sd                    =   3.5925595718570E-06
(PID.TID 0000.0001) %MON vort_p_mean                  =   1.1210870169429E-04
(PID.TID 0000.0001) %MON vort_p_sd                    =   2.1058259438837E-05
(PID.TID 0000.0001) %MON surfExpan_theta_mean         =   2.1500566032580E-20
(PID.TID 0000.0001) %MON surfExpan_salt_mean          =   3.2378482647803E-20
(PID.TID 0000.0001) // =======================================================
(PID.TID 0000.0001) // End MONITOR dynamic field statistics
(PID.TID 0000.0001) // =======================================================
 cg2d: Sum(rhs),rhsMax =   2.06590490418244E-04  9.08183390334860E-03
 cg2d: Sum(rhs),rhsMax =   2.06644565829566E-04  9.08298837202781E-03
 cg2d: Sum(rhs),rhsMax =   2.06698522249983E-04  9.08414253369817E-03
 cg2d: Sum(rhs),rhsMax =   2.06752415245707E-04  9.08529639277319E-03
 cg2d: Sum(rhs),rhsMax =   2.06806224645655E-04  9.08644994454695E-03
 cg2d: Sum(rhs),rhsMax =   2.06859987096806E-04  9.08760319173270E-03
 cg2d: Sum(rhs),rhsMax =   2.06913657437665E-04  9.08875613225289E-03
 cg2d: Sum(rhs),rhsMax =   2.06967280506907E-04  9.08990877120720E-03
 cg2d: Sum(rhs),rhsMax =   2.07020826150208E-04  9.09106110073834E-03
 cg2d: Sum(rhs),rhsMax =   2.07074299637901E-04  9.09221312823262E-03
 cg2d: Sum(rhs),rhsMax =   2.07127701323067E-04  9.09336484607047E-03
 cg2d: Sum(rhs),rhsMax =   2.07181029744704E-04  9.09451626421408E-03
 cg2d: Sum(rhs),rhsMax =   2.07234300573551E-04  9.09566736933177E-03
 cg2d: Sum(rhs),rhsMax =   2.07287492140624E-04  9.09681817484904E-03
 cg2d: Sum(rhs),rhsMax =   2.07340618334865E-04  9.09796866882100E-03
 cg2d: Sum(rhs),rhsMax =   2.07393669158720E-04  9.09911886277109E-03
 cg2d: Sum(rhs),rhsMax =   2.07446653977483E-04  9.10026874410467E-03
 cg2d: Sum(rhs),rhsMax =   2.07499564886532E-04  9.10141832480206E-03
 cg2d: Sum(rhs),rhsMax =   2.07552420973943E-04  9.10256759350117E-03
 cg2d: Sum(rhs),rhsMax =   2.07605232176271E-04  9.10371656109736E-03
 cg2d: Sum(rhs),rhsMax =   2.07657942786458E-04  9.10486521730170E-03
 cg2d: Sum(rhs),rhsMax =   2.07710584341724E-04  9.10601357099674E-03
 cg2d: Sum(rhs),rhsMax =   2.07763178982209E-04  9.10716161413584E-03
 cg2d: Sum(rhs),rhsMax =   2.07815702861635E-04  9.10830935515186E-03
 cg2d: Sum(rhs),rhsMax =   2.07868162326420E-04  9.10945678284713E-03
 cg2d: Sum(rhs),rhsMax =   2.07920556949808E-04  9.11060390990927E-03
 cg2d: Sum(rhs),rhsMax =   2.07972893958897E-04  9.11175072430228E-03
 cg2d: Sum(rhs),rhsMax =   2.08025153823557E-04  9.11289723736744E-03
 cg2d: Sum(rhs),rhsMax =   2.08077377951050E-04  9.11404343756057E-03
 cg2d: Sum(rhs),rhsMax =   2.08129537566925E-04  9.11518933566700E-03
 cg2d: Sum(rhs),rhsMax =   2.08181624040996E-04  9.11633492055337E-03
 cg2d: Sum(rhs),rhsMax =   2.08233664369286E-04  9.11748020440750E-03
 cg2d: Sum(rhs),rhsMax =   2.08285634916325E-04  9.11862517444087E-03
 cg2d: Sum(rhs),rhsMax =   2.08337543801861E-04  9.11976984301299E-03
 cg2d: Sum(rhs),rhsMax =   2.08389382604347E-04  9.12091419794417E-03
 cg2d: Sum(rhs),rhsMax =   2.08441168379868E-04  9.12205825091787E-03
 cg2d: Sum(rhs),rhsMax =   2.08492879874133E-04  9.12320199070210E-03
 cg2d: Sum(rhs),rhsMax =   2.08544526988883E-04  9.12434542766434E-03
 cg2d: Sum(rhs),rhsMax =   2.08596132465376E-04  9.12548855257042E-03
 cg2d: Sum(rhs),rhsMax =   2.08647673155937E-04  9.12663137374519E-03
 cg2d: Sum(rhs),rhsMax =   2.08699162716867E-04  9.12777388246081E-03
 cg2d: Sum(rhs),rhsMax =   2.08750586540485E-04  9.12891608692918E-03
 cg2d: Sum(rhs),rhsMax =   2.08801952549603E-04  9.13005798020779E-03
 cg2d: Sum(rhs),rhsMax =   2.08853238290311E-04  9.13119957042137E-03
 cg2d: Sum(rhs),rhsMax =   2.08904506685837E-04  9.13234084355273E-03
 cg2d: Sum(rhs),rhsMax =   2.08955710121963E-04  9.13348181650471E-03
 cg2d: Sum(rhs),rhsMax =   2.09006854821217E-04  9.13462247572398E-03
 cg2d: Sum(rhs),rhsMax =   2.09057937359156E-04  9.13576283338870E-03
 cg2d: Sum(rhs),rhsMax =   2.09108983364731E-04  9.13690287553203E-03
 cg2d: Sum(rhs),rhsMax =   2.09159988470533E-04  9.13804261552710E-03
 cg2d: Sum(rhs),rhsMax =   2.09210907646607E-04  9.13918204139256E-03
 cg2d: Sum(rhs),rhsMax =   2.09261783647755E-04  9.14032116453247E-03
 cg2d: Sum(rhs),rhsMax =   2.09312566180037E-04  9.14145997542942E-03
 cg2d: Sum(rhs),rhsMax =   2.09363339734835E-04  9.14259847856020E-03
 cg2d: Sum(rhs),rhsMax =   2.09414057510798E-04  9.14373667134189E-03
 cg2d: Sum(rhs),rhsMax =   2.09464713753984E-04  9.14487455960133E-03
 cg2d: Sum(rhs),rhsMax =   2.09515302388538E-04  9.14601213524279E-03
 cg2d: Sum(rhs),rhsMax =   2.09565847143007E-04  9.14714940676838E-03
 cg2d: Sum(rhs),rhsMax =   2.09616345968890E-04  9.14828636544964E-03
 cg2d: Sum(rhs),rhsMax =   2.09666798557722E-04  9.14942301926547E-03
 cg2d: Sum(rhs),rhsMax =   2.09717202566869E-04  9.15055936093206E-03
 cg2d: Sum(rhs),rhsMax =   2.09767547274241E-04  9.15169539729979E-03
 cg2d: Sum(rhs),rhsMax =   2.09817827881287E-04  9.15283112190972E-03
 cg2d: Sum(rhs),rhsMax =   2.09868061817083E-04  9.15396654076361E-03
 cg2d: Sum(rhs),rhsMax =   2.09918255780745E-04  9.15510164811400E-03
 cg2d: Sum(rhs),rhsMax =   2.09968406927644E-04  9.15623644972439E-03
 cg2d: Sum(rhs),rhsMax =   2.10018430562708E-04  9.15737094011804E-03
 cg2d: Sum(rhs),rhsMax =   2.10068464838089E-04  9.15850512463966E-03
 cg2d: Sum(rhs),rhsMax =   2.10118452295620E-04  9.15963899711007E-03
 cg2d: Sum(rhs),rhsMax =   2.10168397724697E-04  9.16077256454952E-03
 cg2d: Sum(rhs),rhsMax =   2.10218267839596E-04  9.16190581880694E-03
 cg2d: Sum(rhs),rhsMax =   2.10268096741573E-04  9.16303876913179E-03
(PID.TID 0000.0001)      cg2d_init_res =   6.68804691378699E-03
(PID.TID 0000.0001)      cg2d_iters(min,last) =      -1     384
(PID.TID 0000.0001)      cg2d_last_res =   9.63445116898469E-08
(PID.TID 0000.0001) // =======================================================
(PID.TID 0000.0001) // Begin MONITOR dynamic field statistics
(PID.TID 0000.0001) // =======================================================
(PID.TID 0000.0001) %MON time_tsnumber                =                  6480
(PID.TID 0000.0001) %MON time_secondsf                =   7.7760000000000E+06
(PID.TID 0000.0001) %MON dynstat_eta_max              =   9.1859245794201E-02
(PID.TID 0000.0001) %MON dynstat_eta_min              =  -1.9138521426134E-01
(PID.TID 0000.0001) %MON dynstat_eta_mean             =  -9.1720315225277E-09
(PID.TID 0000.0001) %MON dynstat_eta_sd               =   7.4371401157717E-02
(PID.TID 0000.0001) %MON dynstat_eta_del2             =   4.3207529259279E-07
(PID.TID 0000.0001) %MON dynstat_uvel_max             =   6.7321527616054E-02
(PID.TID 0000.0001) %MON dynstat_uvel_min             =  -8.7573366371979E-02
(PID.TID 0000.0001) %MON dynstat_uvel_mean            =  -1.1953910737865E-07
(PID.TID 0000.0001) %MON dynstat_uvel_sd              =   3.0309489880625E-02
(PID.TID 0000.0001) %MON dynstat_uvel_del2            =   7.4095932904834E-07
(PID.TID 0000.0001) %MON dynstat_vvel_max             =   7.1370001893487E-02
(PID.TID 0000.0001) %MON dynstat_vvel_min             =  -6.2390135539156E-02
(PID.TID 0000.0001) %MON dynstat_vvel_mean            =  -1.6427037524615E-07
(PID.TID 0000.0001) %MON dynstat_vvel_sd              =   2.7003730741376E-02
(PID.TID 0000.0001) %MON dynstat_vvel_del2            =   9.8503146064697E-07
(PID.TID 0000.0001) %MON dynstat_wvel_max             =   2.1293076703441E-08
(PID.TID 0000.0001) %MON dynstat_wvel_min             =  -2.1756352339871E-08
(PID.TID 0000.0001) %MON dynstat_wvel_mean            =   5.3789306916815E-21
(PID.TID 0000.0001) %MON dynstat_wvel_sd              =   7.9326044055313E-09
(PID.TID 0000.0001) %MON dynstat_wvel_del2            =   6.8311458752387E-14
(PID.TID 0000.0001) %MON dynstat_theta_max            =   2.0000000000000E+01
(PID.TID 0000.0001) %MON dynstat_theta_min            =   2.0000000000000E+01
(PID.TID 0000.0001) %MON dynstat_theta_mean           =   1.9999999999999E+01
(PID.TID 0000.0001) %MON dynstat_theta_sd             =   1.1972645097557E-12
(PID.TID 0000.0001) %MON dynstat_theta_del2           =   0.0000000000000E+00
(PID.TID 0000.0001) %MON dynstat_salt_max             =   3.0000000000000E+01
(PID.TID 0000.0001) %MON dynstat_salt_min             =   3.0000000000000E+01
(PID.TID 0000.0001) %MON dynstat_salt_mean            =   2.9999999999998E+01
(PID.TID 0000.0001) %MON dynstat_salt_sd              =   2.1529444893531E-12
(PID.TID 0000.0001) %MON dynstat_salt_del2            =   0.0000000000000E+00
(PID.TID 0000.0001) %MON trAdv_CFL_u_max              =   2.1015887388900E-02
(PID.TID 0000.0001) %MON trAdv_CFL_v_max              =   1.7125763211573E-02
(PID.TID 0000.0001) %MON trAdv_CFL_w_max              =   5.4049627284279E-09
(PID.TID 0000.0001) %MON advcfl_uvel_max              =   2.1017607929275E-02
(PID.TID 0000.0001) %MON advcfl_vvel_max              =   1.7128800454437E-02
(PID.TID 0000.0001) %MON advcfl_wvel_max              =   1.0443049123138E-08
(PID.TID 0000.0001) %MON advcfl_W_hf_max              =   0.0000000000000E+00
(PID.TID 0000.0001) %MON pe_b_mean                    =   5.6590783160817E-06
(PID.TID 0000.0001) %MON ke_max                       =   3.8349614715904E-03
(PID.TID 0000.0001) %MON ke_mean                      =   8.2022448794634E-04
(PID.TID 0000.0001) %MON ke_vol                       =   7.2529629296391E+15
(PID.TID 0000.0001) %MON vort_r_min                   =  -2.8984238246123E-06
(PID.TID 0000.0001) %MON vort_r_max                   =   2.7314041039237E-06
(PID.TID 0000.0001) %MON vort_a_mean                  =   1.0615000000000E-04
(PID.TID 0000.0001) %MON vort_a_sd                    =   3.5930230710897E-06
(PID.TID 0000.0001) %MON vort_p_mean                  =   1.1210870169429E-04
(PID.TID 0000.0001) %MON vort_p_sd                    =   2.1058346817712E-05
(PID.TID 0000.0001) %MON surfExpan_theta_mean         =   1.0747908317561E-19
(PID.TID 0000.0001) %MON surfExpan_salt_mean          =   1.6134163694618E-19
(PID.TID 0000.0001) // =======================================================
(PID.TID 0000.0001) // End MONITOR dynamic field statistics
(PID.TID 0000.0001) // =======================================================
 cg2d: Sum(rhs),rhsMax =   2.10317868031339E-04  9.16417140672376E-03
 cg2d: Sum(rhs),rhsMax =   2.10367606028231E-04  9.16530373977593E-03
 cg2d: Sum(rhs),rhsMax =   2.10417236356236E-04  9.16643576136877E-03
 cg2d: Sum(rhs),rhsMax =   2.10466874913972E-04  9.16756747521675E-03
 cg2d: Sum(rhs),rhsMax =   2.10516435490660E-04  9.16869887951582E-03
 cg2d: Sum(rhs),rhsMax =   2.10565971410049E-04  9.16982997628392E-03
 cg2d: Sum(rhs),rhsMax =   2.10615459389676E-04  9.17096076250791E-03
 cg2d: Sum(rhs),rhsMax =   2.10664898856270E-04  9.17209124327422E-03
 cg2d: Sum(rhs),rhsMax =   2.10714274118338E-04  9.17322141288121E-03
 cg2d: Sum(rhs),rhsMax =   2.10763604157175E-04  9.17435127706229E-03
 cg2d: Sum(rhs),rhsMax =   2.10812895915761E-04  9.17548082929677E-03
 cg2d: Sum(rhs),rhsMax =   2.10862124622390E-04  9.17661007555967E-03
 cg2d: Sum(rhs),rhsMax =   2.10911316950328E-04  9.17773901105750E-03
 cg2d: Sum(rhs),rhsMax =   2.10969109276739E-04  9.17886764734035E-03
 cg2d: Sum(rhs),rhsMax =   2.11026833325934E-04  9.17999596893508E-03
 cg2d: Sum(rhs),rhsMax =   2.11084521847010E-04  9.18112398121854E-03
 cg2d: Sum(rhs),rhsMax =   2.11142134679992E-04  9.18225168394557E-03
 cg2d: Sum(rhs),rhsMax =   2.11199687081045E-04  9.18337908018766E-03
 cg2d: Sum(rhs),rhsMax =   2.11257181329881E-04  9.18450616646413E-03
 cg2d: Sum(rhs),rhsMax =   2.11314609639241E-04  9.18563294616296E-03
 cg2d: Sum(rhs),rhsMax =   2.11371981860669E-04  9.18675941562209E-03
 cg2d: Sum(rhs),rhsMax =   2.11429279815567E-04  9.18788557945441E-03
 cg2d: Sum(rhs),rhsMax =   2.11486500640229E-04  9.18901143125037E-03
 cg2d: Sum(rhs),rhsMax =   2.11543695168731E-04  9.19013698047659E-03
 cg2d: Sum(rhs),rhsMax =   2.11600782265276E-04  9.19126221926452E-03
 cg2d: Sum(rhs),rhsMax =   2.11657810114368E-04  9.19238714981458E-03
 cg2d: Sum(rhs),rhsMax =   2.11714799237470E-04  9.19351177197089E-03
 cg2d: Sum(rhs),rhsMax =   2.11771739287728E-04  9.19463608828707E-03
 cg2d: Sum(rhs),rhsMax =   2.11828596860445E-04  9.19576009506251E-03
 cg2d: Sum(rhs),rhsMax =   2.11885414322781E-04  9.19688379589185E-03
 cg2d: Sum(rhs),rhsMax =   2.11942132451213E-04  9.19800718539811E-03
 cg2d: Sum(rhs),rhsMax =   2.11998808086063E-04  9.19913027107376E-03
 cg2d: Sum(rhs),rhsMax =   2.12055416380839E-04  9.20025304679148E-03
 cg2d: Sum(rhs),rhsMax =   2.12111982862567E-04  9.20137551924807E-03
 cg2d: Sum(rhs),rhsMax =   2.12168469151763E-04  9.20249768225270E-03
 cg2d: Sum(rhs),rhsMax =   2.12224915877898E-04  9.20361953811735E-03
 cg2d: Sum(rhs),rhsMax =   2.12281285072195E-04  9.20474108555134E-03
 cg2d: Sum(rhs),rhsMax =   2.12337598119033E-04  9.20586232720228E-03
 cg2d: Sum(rhs),rhsMax =   2.12393836617541E-04  9.20698325980173E-03
 cg2d: Sum(rhs),rhsMax =   2.12450029304971E-04  9.20810388701395E-03
 cg2d: Sum(rhs),rhsMax =   2.12506142032705E-04  9.20922420543209E-03
 cg2d: Sum(rhs),rhsMax =   2.12562214343135E-04  9.21034421948211E-03
 cg2d: Sum(rhs),rhsMax =   2.12618188809790E-04  9.21146392325043E-03
 cg2d: Sum(rhs),rhsMax =   2.12674136954413E-04  9.21258332440743E-03
 cg2d: Sum(rhs),rhsMax =   2.12730000794914E-04  9.21370241588423E-03
 cg2d: Sum(rhs),rhsMax =   2.12785823938265E-04  9.21482120406098E-03
 cg2d: Sum(rhs),rhsMax =   2.12841557793966E-04  9.21593968369492E-03
 cg2d: Sum(rhs),rhsMax =   2.12897271949081E-04  9.21705785911520E-03
 cg2d: Sum(rhs),rhsMax =   2.12952882487618E-04  9.21817572504004E-03
 cg2d: Sum(rhs),rhsMax =   2.13008442753610E-04  9.21929328929780E-03
 cg2d: Sum(rhs),rhsMax =   2.13063912179460E-04  9.22041054440046E-03
 cg2d: Sum(rhs),rhsMax =   2.13119352890173E-04  9.22152749473092E-03
 cg2d: Sum(rhs),rhsMax =   2.13174742770978E-04  9.22264413826747E-03
 cg2d: Sum(rhs),rhsMax =   2.13230059642012E-04  9.22376047765861E-03
 cg2d: Sum(rhs),rhsMax =   2.13285315330859E-04  9.22487651003345E-03
 cg2d: Sum(rhs),rhsMax =   2.13340520757742E-04  9.22599223886035E-03
 cg2d: Sum(rhs),rhsMax =   2.13395639778293E-04  9.22710766064713E-03
 cg2d: Sum(rhs),rhsMax =   2.13450709992152E-04  9.22822277853047E-03
 cg2d: Sum(rhs),rhsMax =   2.13505666415977E-04  9.22933758914171E-03
 cg2d: Sum(rhs),rhsMax =   2.13560616668208E-04  9.23045209567130E-03
 cg2d: Sum(rhs),rhsMax =   2.13615484477684E-04  9.23156629591712E-03
 cg2d: Sum(rhs),rhsMax =   2.13670311206508E-04  9.23268019213230E-03
 cg2d: Sum(rhs),rhsMax =   2.13725092432884E-04  9.23379378425836E-03
 cg2d: Sum(rhs),rhsMax =   2.13779771482894E-04  9.23490707115904E-03
 cg2d: Sum(rhs),rhsMax =   2.13834420897046E-04  9.23602005578146E-03
 cg2d: Sum(rhs),rhsMax =   2.13888980976670E-04  9.23713273331618E-03
 cg2d: Sum(rhs),rhsMax =   2.13943471432741E-04  9.23824510946413E-03
 cg2d: Sum(rhs),rhsMax =   2.13997896046441E-04  9.23935718044040E-03
 cg2d: Sum(rhs),rhsMax =   2.14052287102784E-04  9.24046894868551E-03
 cg2d: Sum(rhs),rhsMax =   2.14106603333271E-04  9.24158041228678E-03
 cg2d: Sum(rhs),rhsMax =   2.14160849758477E-04  9.24269157143355E-03
 cg2d: Sum(rhs),rhsMax =   2.14215032174923E-04  9.24380242730203E-03
(PID.TID 0000.0001)      cg2d_init_res =   6.56024323282201E-03
(PID.TID 0000.0001)      cg2d_iters(min,last) =      -1     383
(PID.TID 0000.0001)      cg2d_last_res =   9.73629911525849E-08
(PID.TID 0000.0001) // =======================================================
(PID.TID 0000.0001) // Begin MONITOR dynamic field statistics
(PID.TID 0000.0001) // =======================================================
(PID.TID 0000.0001) %MON time_tsnumber                =                  6552
(PID.TID 0000.0001) %MON time_secondsf                =   7.8624000000000E+06
(PID.TID 0000.0001) %MON dynstat_eta_max              =   9.2630393974005E-02
(PID.TID 0000.0001) %MON dynstat_eta_min              =  -1.9308523260571E-01
(PID.TID 0000.0001) %MON dynstat_eta_mean             =  -9.4266772632537E-09
(PID.TID 0000.0001) %MON dynstat_eta_sd               =   7.4916506746418E-02
(PID.TID 0000.0001) %MON dynstat_eta_del2             =   4.3570906753281E-07
(PID.TID 0000.0001) %MON dynstat_uvel_max             =   6.8252200008859E-02
(PID.TID 0000.0001) %MON dynstat_uvel_min             =  -8.8081557937862E-02
(PID.TID 0000.0001) %MON dynstat_uvel_mean            =  -1.2292394483370E-07
(PID.TID 0000.0001) %MON dynstat_uvel_sd              =   3.0547595528577E-02
(PID.TID 0000.0001) %MON dynstat_uvel_del2            =   7.4339702382947E-07
(PID.TID 0000.0001) %MON dynstat_vvel_max             =   7.2287165627740E-02
(PID.TID 0000.0001) %MON dynstat_vvel_min             =  -6.2957830705223E-02
(PID.TID 0000.0001) %MON dynstat_vvel_mean            =  -1.3624529696360E-07
(PID.TID 0000.0001) %MON dynstat_vvel_sd              =   2.7226503948557E-02
(PID.TID 0000.0001) %MON dynstat_vvel_del2            =   9.9302596905845E-07
(PID.TID 0000.0001) %MON dynstat_wvel_max             =   1.9981006212183E-08
(PID.TID 0000.0001) %MON dynstat_wvel_min             =  -2.1823176539037E-08
(PID.TID 0000.0001) %MON dynstat_wvel_mean            =  -3.0830275963952E-21
(PID.TID 0000.0001) %MON dynstat_wvel_sd              =   7.8752724216462E-09
(PID.TID 0000.0001) %MON dynstat_wvel_del2            =   6.7700838631625E-14
(PID.TID 0000.0001) %MON dynstat_theta_max            =   2.0000000000000E+01
(PID.TID 0000.0001) %MON dynstat_theta_min            =   2.0000000000000E+01
(PID.TID 0000.0001) %MON dynstat_theta_mean           =   1.9999999999999E+01
(PID.TID 0000.0001) %MON dynstat_theta_sd             =   1.1972645097557E-12
(PID.TID 0000.0001) %MON dynstat_theta_del2           =   0.0000000000000E+00
(PID.TID 0000.0001) %MON dynstat_salt_max             =   3.0000000000000E+01
(PID.TID 0000.0001) %MON dynstat_salt_min             =   3.0000000000000E+01
(PID.TID 0000.0001) %MON dynstat_salt_mean            =   2.9999999999998E+01
(PID.TID 0000.0001) %MON dynstat_salt_sd              =   2.1529444893531E-12
(PID.TID 0000.0001) %MON dynstat_salt_del2            =   0.0000000000000E+00
(PID.TID 0000.0001) %MON trAdv_CFL_u_max              =   2.1137905522982E-02
(PID.TID 0000.0001) %MON trAdv_CFL_v_max              =   1.7345844710090E-02
(PID.TID 0000.0001) %MON trAdv_CFL_w_max              =   5.0660882595974E-09
(PID.TID 0000.0001) %MON advcfl_uvel_max              =   2.1139573905087E-02
(PID.TID 0000.0001) %MON advcfl_vvel_max              =   1.7348919750658E-02
(PID.TID 0000.0001) %MON advcfl_wvel_max              =   1.0475124738738E-08
(PID.TID 0000.0001) %MON advcfl_W_hf_max              =   0.0000000000000E+00
(PID.TID 0000.0001) %MON pe_b_mean                    =   5.7423388216108E-06
(PID.TID 0000.0001) %MON ke_max                       =   3.8796252497816E-03
(PID.TID 0000.0001) %MON ke_mean                      =   8.3345041334872E-04
(PID.TID 0000.0001) %MON ke_vol                       =   7.2529629296391E+15
(PID.TID 0000.0001) %MON vort_r_min                   =  -2.9243975238050E-06
(PID.TID 0000.0001) %MON vort_r_max                   =   2.7570441329139E-06
(PID.TID 0000.0001) %MON vort_a_mean                  =   1.0615000000000E-04
(PID.TID 0000.0001) %MON vort_a_sd                    =   3.5934783438669E-06
(PID.TID 0000.0001) %MON vort_p_mean                  =   1.1210870169429E-04
(PID.TID 0000.0001) %MON vort_p_sd                    =   2.1058445301141E-05
(PID.TID 0000.0001) %MON surfExpan_theta_mean         =  -6.2135541238939E-20
(PID.TID 0000.0001) %MON surfExpan_salt_mean          =  -9.3108065745138E-20
(PID.TID 0000.0001) // =======================================================
(PID.TID 0000.0001) // End MONITOR dynamic field statistics
(PID.TID 0000.0001) // =======================================================
 cg2d: Sum(rhs),rhsMax =   2.14269166329460E-04  9.24491297919700E-03
 cg2d: Sum(rhs),rhsMax =   2.14323186419089E-04  9.24602322677999E-03
 cg2d: Sum(rhs),rhsMax =   2.14377205310876E-04  9.24713317186738E-03
 cg2d: Sum(rhs),rhsMax =   2.14431117803058E-04  9.24824281421595E-03
 cg2d: Sum(rhs),rhsMax =   2.14485016244392E-04  9.24935215367552E-03
 cg2d: Sum(rhs),rhsMax =   2.14538819731255E-04  9.25046119070981E-03
 cg2d: Sum(rhs),rhsMax =   2.14592579438323E-04  9.25156992524559E-03
 cg2d: Sum(rhs),rhsMax =   2.14646269730853E-04  9.25267835695902E-03
 cg2d: Sum(rhs),rhsMax =   2.14699880256554E-04  9.25378648781448E-03
 cg2d: Sum(rhs),rhsMax =   2.14753417488481E-04  9.25489431354153E-03
 cg2d: Sum(rhs),rhsMax =   2.14806898005218E-04  9.25600184232000E-03
 cg2d: Sum(rhs),rhsMax =   2.14860287255978E-04  9.25710906865122E-03
 cg2d: Sum(rhs),rhsMax =   2.14913645539386E-04  9.25821599033429E-03
 cg2d: Sum(rhs),rhsMax =   2.14966937262140E-04  9.25932260985095E-03
 cg2d: Sum(rhs),rhsMax =   2.15020162507936E-04  9.26042892971272E-03
 cg2d: Sum(rhs),rhsMax =   2.15073332744625E-04  9.26153494738897E-03
 cg2d: Sum(rhs),rhsMax =   2.15126400131100E-04  9.26264066588095E-03
 cg2d: Sum(rhs),rhsMax =   2.15179414800140E-04  9.26374607945896E-03
 cg2d: Sum(rhs),rhsMax =   2.15232379870638E-04  9.26485119755798E-03
 cg2d: Sum(rhs),rhsMax =   2.15285249600584E-04  9.26595601396841E-03
 cg2d: Sum(rhs),rhsMax =   2.15338069061601E-04  9.26706053094825E-03
 cg2d: Sum(rhs),rhsMax =   2.15390834153159E-04  9.26816474663227E-03
 cg2d: Sum(rhs),rhsMax =   2.15443516571951E-04  9.26926866196366E-03
 cg2d: Sum(rhs),rhsMax =   2.15496171800372E-04  9.27037227724118E-03
 cg2d: Sum(rhs),rhsMax =   2.15548755007526E-04  9.27147559259201E-03
 cg2d: Sum(rhs),rhsMax =   2.15601256291139E-04  9.27257860841075E-03
 cg2d: Sum(rhs),rhsMax =   2.15653689967477E-04  9.27368132520235E-03
 cg2d: Sum(rhs),rhsMax =   2.15706040356737E-04  9.27478374101799E-03
 cg2d: Sum(rhs),rhsMax =   2.15758327930147E-04  9.27588586067212E-03
 cg2d: Sum(rhs),rhsMax =   2.15810540062261E-04  9.27698767899720E-03
 cg2d: Sum(rhs),rhsMax =   2.15862699866396E-04  9.27808920268143E-03
 cg2d: Sum(rhs),rhsMax =   2.15914764138689E-04  9.27919042536357E-03
 cg2d: Sum(rhs),rhsMax =   2.15966786871198E-04  9.28029135094221E-03
 cg2d: Sum(rhs),rhsMax =   2.16018702413435E-04  9.28139197720872E-03
 cg2d: Sum(rhs),rhsMax =   2.16070596039876E-04  9.28249230782183E-03
 cg2d: Sum(rhs),rhsMax =   2.16122415564192E-04  9.28359233891304E-03
 cg2d: Sum(rhs),rhsMax =   2.16174177772158E-04  9.28469207360270E-03
 cg2d: Sum(rhs),rhsMax =   2.16225837881959E-04  9.28579150899783E-03
 cg2d: Sum(rhs),rhsMax =   2.16277455221943E-04  9.28689065131630E-03
 cg2d: Sum(rhs),rhsMax =   2.16328987047104E-04  9.28798949382442E-03
 cg2d: Sum(rhs),rhsMax =   2.16380442409776E-04  9.28908804173459E-03
 cg2d: Sum(rhs),rhsMax =   2.16431832435917E-04  9.29018629024267E-03
 cg2d: Sum(rhs),rhsMax =   2.16483157384451E-04  9.29128424816342E-03
 cg2d: Sum(rhs),rhsMax =   2.16534427359579E-04  9.29238190783789E-03
 cg2d: Sum(rhs),rhsMax =   2.16585611818761E-04  9.29347927043622E-03
 cg2d: Sum(rhs),rhsMax =   2.16636719148120E-04  9.29457633579358E-03
 cg2d: Sum(rhs),rhsMax =   2.16687769231751E-04  9.29567310927421E-03
 cg2d: Sum(rhs),rhsMax =   2.16738758214324E-04  9.29676958480405E-03
 cg2d: Sum(rhs),rhsMax =   2.16789677708882E-04  9.29786576664032E-03
 cg2d: Sum(rhs),rhsMax =   2.16840507879266E-04  9.29896165199362E-03
 cg2d: Sum(rhs),rhsMax =   2.16891270066058E-04  9.30005724665965E-03
 cg2d: Sum(rhs),rhsMax =   2.16941948684645E-04  9.30115254406373E-03
 cg2d: Sum(rhs),rhsMax =   2.16992561546470E-04  9.30224754977667E-03
 cg2d: Sum(rhs),rhsMax =   2.17043107377685E-04  9.30334225746594E-03
 cg2d: Sum(rhs),rhsMax =   2.17093577835094E-04  9.30443667773745E-03
 cg2d: Sum(rhs),rhsMax =   2.17143982197601E-04  9.30553080176389E-03
 cg2d: Sum(rhs),rhsMax =   2.17194305136906E-04  9.30662463365418E-03
 cg2d: Sum(rhs),rhsMax =   2.17244566441692E-04  9.30771816976705E-03
 cg2d: Sum(rhs),rhsMax =   2.17294771425767E-04  9.30881141803434E-03
 cg2d: Sum(rhs),rhsMax =   2.17344851340335E-04  9.30990437222898E-03
 cg2d: Sum(rhs),rhsMax =   2.17394881763578E-04  9.31099703225622E-03
 cg2d: Sum(rhs),rhsMax =   2.17444847569524E-04  9.31208939952853E-03
 cg2d: Sum(rhs),rhsMax =   2.17494744197425E-04  9.31318147785327E-03
 cg2d: Sum(rhs),rhsMax =   2.17544568717074E-04  9.31427326284275E-03
 cg2d: Sum(rhs),rhsMax =   2.17594313550170E-04  9.31536475856912E-03
 cg2d: Sum(rhs),rhsMax =   2.17643985312516E-04  9.31645596086305E-03
 cg2d: Sum(rhs),rhsMax =   2.17693597686988E-04  9.31754687593451E-03
 cg2d: Sum(rhs),rhsMax =   2.17743090535190E-04  9.31863749518691E-03
 cg2d: Sum(rhs),rhsMax =   2.17792519157956E-04  9.31972783034542E-03
 cg2d: Sum(rhs),rhsMax =   2.17841884326272E-04  9.32081787279593E-03
 cg2d: Sum(rhs),rhsMax =   2.17891185888323E-04  9.32190762877711E-03
 cg2d: Sum(rhs),rhsMax =   2.17940422306743E-04  9.32299709266050E-03
(PID.TID 0000.0001)      cg2d_init_res =   6.44182017440439E-03
(PID.TID 0000.0001)      cg2d_iters(min,last) =      -1     383
(PID.TID 0000.0001)      cg2d_last_res =   9.35071689557170E-08
(PID.TID 0000.0001) // =======================================================
(PID.TID 0000.0001) // Begin MONITOR dynamic field statistics
(PID.TID 0000.0001) // =======================================================
(PID.TID 0000.0001) %MON time_tsnumber                =                  6624
(PID.TID 0000.0001) %MON time_secondsf                =   7.9488000000000E+06
(PID.TID 0000.0001) %MON dynstat_eta_max              =   9.3371705220128E-02
(PID.TID 0000.0001) %MON dynstat_eta_min              =  -1.9476812075514E-01
(PID.TID 0000.0001) %MON dynstat_eta_mean             =  -9.6724872805912E-09
(PID.TID 0000.0001) %MON dynstat_eta_sd               =   7.5452889728236E-02
(PID.TID 0000.0001) %MON dynstat_eta_del2             =   4.3926973218662E-07
(PID.TID 0000.0001) %MON dynstat_uvel_max             =   6.9101039980821E-02
(PID.TID 0000.0001) %MON dynstat_uvel_min             =  -8.8574374370871E-02
(PID.TID 0000.0001) %MON dynstat_uvel_mean            =  -1.1938405351145E-07
(PID.TID 0000.0001) %MON dynstat_uvel_sd              =   3.0771799062736E-02
(PID.TID 0000.0001) %MON dynstat_uvel_del2            =   7.4542314354310E-07
(PID.TID 0000.0001) %MON dynstat_vvel_max             =   7.3217461888180E-02
(PID.TID 0000.0001) %MON dynstat_vvel_min             =  -6.3520784315884E-02
(PID.TID 0000.0001) %MON dynstat_vvel_mean            =  -1.0893151863346E-07
(PID.TID 0000.0001) %MON dynstat_vvel_sd              =   2.7459163350747E-02
(PID.TID 0000.0001) %MON dynstat_vvel_del2            =   1.0005771291723E-06
(PID.TID 0000.0001) %MON dynstat_wvel_max             =   1.8587073037052E-08
(PID.TID 0000.0001) %MON dynstat_wvel_min             =  -2.1874682304915E-08
(PID.TID 0000.0001) %MON dynstat_wvel_mean            =  -9.1568207917297E-22
(PID.TID 0000.0001) %MON dynstat_wvel_sd              =   7.8194507973316E-09
(PID.TID 0000.0001) %MON dynstat_wvel_del2            =   6.7108320914405E-14
(PID.TID 0000.0001) %MON dynstat_theta_max            =   2.0000000000000E+01
(PID.TID 0000.0001) %MON dynstat_theta_min            =   2.0000000000000E+01
(PID.TID 0000.0001) %MON dynstat_theta_mean           =   1.9999999999999E+01
(PID.TID 0000.0001) %MON dynstat_theta_sd             =   1.1972645097557E-12
(PID.TID 0000.0001) %MON dynstat_theta_del2           =   0.0000000000000E+00
(PID.TID 0000.0001) %MON dynstat_salt_max             =   3.0000000000000E+01
(PID.TID 0000.0001) %MON dynstat_salt_min             =   3.0000000000000E+01
(PID.TID 0000.0001) %MON dynstat_salt_mean            =   2.9999999999998E+01
(PID.TID 0000.0001) %MON dynstat_salt_sd              =   2.1529444893531E-12
(PID.TID 0000.0001) %MON dynstat_salt_del2            =   0.0000000000000E+00
(PID.TID 0000.0001) %MON trAdv_CFL_u_max              =   2.1256231706290E-02
(PID.TID 0000.0001) %MON trAdv_CFL_v_max              =   1.7569075893419E-02
(PID.TID 0000.0001) %MON trAdv_CFL_w_max              =   4.7060559825324E-09
(PID.TID 0000.0001) %MON advcfl_uvel_max              =   2.1257849849009E-02
(PID.TID 0000.0001) %MON advcfl_vvel_max              =   1.7572190853163E-02
(PID.TID 0000.0001) %MON advcfl_wvel_max              =   1.0499847506359E-08
(PID.TID 0000.0001) %MON advcfl_W_hf_max              =   0.0000000000000E+00
(PID.TID 0000.0001) %MON pe_b_mean                    =   5.8248605325515E-06
(PID.TID 0000.0001) %MON ke_max                       =   3.9231895446418E-03
(PID.TID 0000.0001) %MON ke_mean                      =   8.4662641478417E-04
(PID.TID 0000.0001) %MON ke_vol                       =   7.2529629296391E+15
(PID.TID 0000.0001) %MON vort_r_min                   =  -2.9498337874347E-06
(PID.TID 0000.0001) %MON vort_r_max                   =   2.7803010055888E-06
(PID.TID 0000.0001) %MON vort_a_mean                  =   1.0615000000000E-04
(PID.TID 0000.0001) %MON vort_a_sd                    =   3.5939233073165E-06
(PID.TID 0000.0001) %MON vort_p_mean                  =   1.1210870169429E-04
(PID.TID 0000.0001) %MON vort_p_sd                    =   2.1058554140094E-05
(PID.TID 0000.0001) %MON surfExpan_theta_mean         =  -1.8219143924740E-20
(PID.TID 0000.0001) %MON surfExpan_salt_mean          =  -2.7327494927980E-20
(PID.TID 0000.0001) // =======================================================
(PID.TID 0000.0001) // End MONITOR dynamic field statistics
(PID.TID 0000.0001) // =======================================================
 cg2d: Sum(rhs),rhsMax =   2.17989571138751E-04  9.32408626734932E-03
 cg2d: Sum(rhs),rhsMax =   2.18038628879655E-04  9.32517515114834E-03
 cg2d: Sum(rhs),rhsMax =   2.18087650433130E-04  9.32626374914966E-03
 cg2d: Sum(rhs),rhsMax =   2.18136576071361E-04  9.32735205594323E-03
 cg2d: Sum(rhs),rhsMax =   2.18185406213919E-04  9.32844007628933E-03
 cg2d: Sum(rhs),rhsMax =   2.18234174825964E-04  9.32952780567843E-03
 cg2d: Sum(rhs),rhsMax =   2.18282888191200E-04  9.33061525227576E-03
 cg2d: Sum(rhs),rhsMax =   2.18331477121456E-04  9.33170240797632E-03
 cg2d: Sum(rhs),rhsMax =   2.18380012588580E-04  9.33278927987319E-03
 cg2d: Sum(rhs),rhsMax =   2.18428468217770E-04  9.33387585989249E-03
 cg2d: Sum(rhs),rhsMax =   2.18476859298463E-04  9.33496216076322E-03
 cg2d: Sum(rhs),rhsMax =   2.18525140845660E-04  9.33604817171647E-03
 cg2d: Sum(rhs),rhsMax =   2.18573369145761E-04  9.33713389777042E-03
 cg2d: Sum(rhs),rhsMax =   2.18621513101154E-04  9.33821933503245E-03
 cg2d: Sum(rhs),rhsMax =   2.18669576277459E-04  9.33930449057848E-03
 cg2d: Sum(rhs),rhsMax =   2.18717553868708E-04  9.34038935734306E-03
 cg2d: Sum(rhs),rhsMax =   2.18765443696315E-04  9.34147394189749E-03
 cg2d: Sum(rhs),rhsMax =   2.18813262103247E-04  9.34255823944132E-03
 cg2d: Sum(rhs),rhsMax =   2.18861023833899E-04  9.34364225504125E-03
 cg2d: Sum(rhs),rhsMax =   2.18908701074964E-04  9.34472598333333E-03
 cg2d: Sum(rhs),rhsMax =   2.18956299130683E-04  9.34580943245928E-03
 cg2d: Sum(rhs),rhsMax =   2.19003797920642E-04  9.34689259337556E-03
 cg2d: Sum(rhs),rhsMax =   2.19051253409827E-04  9.34797547688072E-03
 cg2d: Sum(rhs),rhsMax =   2.19098584310923E-04  9.34905807391834E-03
 cg2d: Sum(rhs),rhsMax =   2.19145863545316E-04  9.35014039080473E-03
 cg2d: Sum(rhs),rhsMax =   2.19193059856597E-04  9.35122242257975E-03
 cg2d: Sum(rhs),rhsMax =   2.19240180158908E-04  9.35230417425073E-03
 cg2d: Sum(rhs),rhsMax =   2.19287212386997E-04  9.35338564195275E-03
 cg2d: Sum(rhs),rhsMax =   2.19334182915885E-04  9.35446683072365E-03
 cg2d: Sum(rhs),rhsMax =   2.19381041579318E-04  9.35554773559538E-03
 cg2d: Sum(rhs),rhsMax =   2.19427841245016E-04  9.35662836290406E-03
 cg2d: Sum(rhs),rhsMax =   2.19474505854094E-04  9.35770870434493E-03
 cg2d: Sum(rhs),rhsMax =   2.19521131151599E-04  9.35878877123274E-03
 cg2d: Sum(rhs),rhsMax =   2.19567675950855E-04  9.35986855639348E-03
 cg2d: Sum(rhs),rhsMax =   2.19614168066025E-04  9.36094806359271E-03
 cg2d: Sum(rhs),rhsMax =   2.19660553218705E-04  9.36202728970207E-03
 cg2d: Sum(rhs),rhsMax =   2.19706871514019E-04  9.36310623901051E-03
 cg2d: Sum(rhs),rhsMax =   2.19753080996010E-04  9.36418490756796E-03
 cg2d: Sum(rhs),rhsMax =   2.19799226142762E-04  9.36526329953650E-03
 cg2d: Sum(rhs),rhsMax =   2.19845274368123E-04  9.36634141104829E-03
 cg2d: Sum(rhs),rhsMax =   2.19891253910887E-04  9.36741924660948E-03
 cg2d: Sum(rhs),rhsMax =   2.19937147921892E-04  9.36849680289898E-03
 cg2d: Sum(rhs),rhsMax =   2.19982918515835E-04  9.36957408001713E-03
 cg2d: Sum(rhs),rhsMax =   2.20036289720680E-04  9.37065106629216E-03
 cg2d: Sum(rhs),rhsMax =   2.20089544144169E-04  9.37172779394655E-03
 cg2d: Sum(rhs),rhsMax =   2.20142711086170E-04  9.37280424592017E-03
 cg2d: Sum(rhs),rhsMax =   2.20195787828217E-04  9.37388042031247E-03
 cg2d: Sum(rhs),rhsMax =   2.20248732879244E-04  9.37495632046810E-03
 cg2d: Sum(rhs),rhsMax =   2.20301593381341E-04  9.37603194659442E-03
 cg2d: Sum(rhs),rhsMax =   2.20354353297385E-04  9.37710729665820E-03
 cg2d: Sum(rhs),rhsMax =   2.20406997696539E-04  9.37818237350403E-03
 cg2d: Sum(rhs),rhsMax =   2.20459509694852E-04  9.37925717771363E-03
 cg2d: Sum(rhs),rhsMax =   2.20511954341000E-04  9.38033170379517E-03
 cg2d: Sum(rhs),rhsMax =   2.20564300446877E-04  9.38140596024313E-03
 cg2d: Sum(rhs),rhsMax =   2.20616540099255E-04  9.38247993915805E-03
 cg2d: Sum(rhs),rhsMax =   2.20668680632205E-04  9.38355364962112E-03
 cg2d: Sum(rhs),rhsMax =   2.20720723175076E-04  9.38462708384538E-03
 cg2d: Sum(rhs),rhsMax =   2.20772653443436E-04  9.38570025024154E-03
 cg2d: Sum(rhs),rhsMax =   2.20824479058680E-04  9.38677314122381E-03
 cg2d: Sum(rhs),rhsMax =   2.20876235682118E-04  9.38784576338294E-03
 cg2d: Sum(rhs),rhsMax =   2.20927855914231E-04  9.38891811324232E-03
 cg2d: Sum(rhs),rhsMax =   2.20979404230381E-04  9.38999019408813E-03
 cg2d: Sum(rhs),rhsMax =   2.21030777458912E-04  9.39106200457843E-03
 cg2d: Sum(rhs),rhsMax =   2.21082095243319E-04  9.39213354227528E-03
 cg2d: Sum(rhs),rhsMax =   2.21133280161358E-04  9.39320481202845E-03
 cg2d: Sum(rhs),rhsMax =   2.21184408514265E-04  9.39427581188850E-03
 cg2d: Sum(rhs),rhsMax =   2.21235389188560E-04  9.39534654489617E-03
 cg2d: Sum(rhs),rhsMax =   2.21286305964727E-04  9.39641700662925E-03
 cg2d: Sum(rhs),rhsMax =   2.21337105120383E-04  9.39748720138011E-03
 cg2d: Sum(rhs),rhsMax =   2.21387821845942E-04  9.39855712818486E-03
 cg2d: Sum(rhs),rhsMax =   2.21438402200923E-04  9.39962678698919E-03
 cg2d: Sum(rhs),rhsMax =   2.21488915524573E-04  9.40069617968947E-03
(PID.TID 0000.0001)      cg2d_init_res =   6.33253448476229E-03
(PID.TID 0000.0001)      cg2d_iters(min,last) =      -1     382
(PID.TID 0000.0001)      cg2d_last_res =   9.77986155733282E-08
(PID.TID 0000.0001) // =======================================================
(PID.TID 0000.0001) // Begin MONITOR dynamic field statistics
(PID.TID 0000.0001) // =======================================================
(PID.TID 0000.0001) %MON time_tsnumber                =                  6696
(PID.TID 0000.0001) %MON time_secondsf                =   8.0352000000000E+06
(PID.TID 0000.0001) %MON dynstat_eta_max              =   9.4075574683948E-02
(PID.TID 0000.0001) %MON dynstat_eta_min              =  -1.9643231841056E-01
(PID.TID 0000.0001) %MON dynstat_eta_mean             =  -9.9118866910407E-09
(PID.TID 0000.0001) %MON dynstat_eta_sd               =   7.5980322741577E-02
(PID.TID 0000.0001) %MON dynstat_eta_del2             =   4.4274626646915E-07
(PID.TID 0000.0001) %MON dynstat_uvel_max             =   6.9872800432172E-02
(PID.TID 0000.0001) %MON dynstat_uvel_min             =  -8.9052620311565E-02
(PID.TID 0000.0001) %MON dynstat_uvel_mean            =  -1.0895049019424E-07
(PID.TID 0000.0001) %MON dynstat_uvel_sd              =   3.0981831286817E-02
(PID.TID 0000.0001) %MON dynstat_uvel_del2            =   7.4711275949191E-07
(PID.TID 0000.0001) %MON dynstat_vvel_max             =   7.4154671640727E-02
(PID.TID 0000.0001) %MON dynstat_vvel_min             =  -6.4073381125782E-02
(PID.TID 0000.0001) %MON dynstat_vvel_mean            =  -8.3490550890362E-08
(PID.TID 0000.0001) %MON dynstat_vvel_sd              =   2.7701300184421E-02
(PID.TID 0000.0001) %MON dynstat_vvel_del2            =   1.0075923664274E-06
(PID.TID 0000.0001) %MON dynstat_wvel_max             =   1.7147528140922E-08
(PID.TID 0000.0001) %MON dynstat_wvel_min             =  -2.1898535126820E-08
(PID.TID 0000.0001) %MON dynstat_wvel_mean            =  -5.2854404645837E-21
(PID.TID 0000.0001) %MON dynstat_wvel_sd              =   7.7631453431265E-09
(PID.TID 0000.0001) %MON dynstat_wvel_del2            =   6.6724638652138E-14
(PID.TID 0000.0001) %MON dynstat_theta_max            =   2.0000000000000E+01
(PID.TID 0000.0001) %MON dynstat_theta_min            =   2.0000000000000E+01
(PID.TID 0000.0001) %MON dynstat_theta_mean           =   1.9999999999999E+01
(PID.TID 0000.0001) %MON dynstat_theta_sd             =   1.1972645097557E-12
(PID.TID 0000.0001) %MON dynstat_theta_del2           =   0.0000000000000E+00
(PID.TID 0000.0001) %MON dynstat_salt_max             =   3.0000000000000E+01
(PID.TID 0000.0001) %MON dynstat_salt_min             =   3.0000000000000E+01
(PID.TID 0000.0001) %MON dynstat_salt_mean            =   2.9999999999998E+01
(PID.TID 0000.0001) %MON dynstat_salt_sd              =   2.1529444893531E-12
(PID.TID 0000.0001) %MON dynstat_salt_del2            =   0.0000000000000E+00
(PID.TID 0000.0001) %MON trAdv_CFL_u_max              =   2.1371057040757E-02
(PID.TID 0000.0001) %MON trAdv_CFL_v_max              =   1.7793990739588E-02
(PID.TID 0000.0001) %MON trAdv_CFL_w_max              =   4.3343349718543E-09
(PID.TID 0000.0001) %MON advcfl_uvel_max              =   2.1372628874776E-02
(PID.TID 0000.0001) %MON advcfl_vvel_max              =   1.7797121193774E-02
(PID.TID 0000.0001) %MON advcfl_wvel_max              =   1.0511296860874E-08
(PID.TID 0000.0001) %MON advcfl_W_hf_max              =   0.0000000000000E+00
(PID.TID 0000.0001) %MON pe_b_mean                    =   5.9065793780074E-06
(PID.TID 0000.0001) %MON ke_max                       =   3.9656938155459E-03
(PID.TID 0000.0001) %MON ke_mean                      =   8.5973047784083E-04
(PID.TID 0000.0001) %MON ke_vol                       =   7.2529629296391E+15
(PID.TID 0000.0001) %MON vort_r_min                   =  -2.9747482761861E-06
(PID.TID 0000.0001) %MON vort_r_max                   =   2.8005649620796E-06
(PID.TID 0000.0001) %MON vort_a_mean                  =   1.0615000000000E-04
(PID.TID 0000.0001) %MON vort_a_sd                    =   3.5943562790043E-06
(PID.TID 0000.0001) %MON vort_p_mean                  =   1.1210870169429E-04
(PID.TID 0000.0001) %MON vort_p_sd                    =   2.1058672040312E-05
(PID.TID 0000.0001) %MON surfExpan_theta_mean         =  -1.0580266416729E-19
(PID.TID 0000.0001) %MON surfExpan_salt_mean          =  -1.5857946223560E-19
(PID.TID 0000.0001) // =======================================================
(PID.TID 0000.0001) // End MONITOR dynamic field statistics
(PID.TID 0000.0001) // =======================================================
 cg2d: Sum(rhs),rhsMax =   2.21539302398616E-04  9.40176530369252E-03
 cg2d: Sum(rhs),rhsMax =   2.21589570050163E-04  9.40283416364729E-03
 cg2d: Sum(rhs),rhsMax =   2.21639743878736E-04  9.40390275516661E-03
 cg2d: Sum(rhs),rhsMax =   2.21697019582754E-04  9.40497108283308E-03
 cg2d: Sum(rhs),rhsMax =   2.21754243279906E-04  9.40603914747492E-03
 cg2d: Sum(rhs),rhsMax =   2.21811351948591E-04  9.40710694488712E-03
 cg2d: Sum(rhs),rhsMax =   2.21868321123928E-04  9.40817447633732E-03
 cg2d: Sum(rhs),rhsMax =   2.21925108940396E-04  9.40924174420569E-03
 cg2d: Sum(rhs),rhsMax =   2.21981863297003E-04  9.41030874761844E-03
 cg2d: Sum(rhs),rhsMax =   2.22038430488377E-04  9.41137548504949E-03
 cg2d: Sum(rhs),rhsMax =   2.22094900769692E-04  9.41244196535607E-03
 cg2d: Sum(rhs),rhsMax =   2.22151269675933E-04  9.41350817982529E-03
 cg2d: Sum(rhs),rhsMax =   2.22207515975497E-04  9.41457413269215E-03
 cg2d: Sum(rhs),rhsMax =   2.22263611237370E-04  9.41563982187498E-03
 cg2d: Sum(rhs),rhsMax =   2.22319602798874E-04  9.41670525305257E-03
 cg2d: Sum(rhs),rhsMax =   2.22375462653452E-04  9.41777042030785E-03
 cg2d: Sum(rhs),rhsMax =   2.22431199202842E-04  9.41883532663948E-03
 cg2d: Sum(rhs),rhsMax =   2.22486827661683E-04  9.41989997278457E-03
 cg2d: Sum(rhs),rhsMax =   2.22542328664475E-04  9.42096436016170E-03
 cg2d: Sum(rhs),rhsMax =   2.22597705501202E-04  9.42202848755832E-03
 cg2d: Sum(rhs),rhsMax =   2.22652971060892E-04  9.42309235563114E-03
 cg2d: Sum(rhs),rhsMax =   2.22708092264561E-04  9.42415596346983E-03
 cg2d: Sum(rhs),rhsMax =   2.22763101688705E-04  9.42521931524741E-03
 cg2d: Sum(rhs),rhsMax =   2.22817946928423E-04  9.42628240724810E-03
 cg2d: Sum(rhs),rhsMax =   2.22872709705436E-04  9.42734524206675E-03
 cg2d: Sum(rhs),rhsMax =   2.22927342749734E-04  9.42840781986272E-03
 cg2d: Sum(rhs),rhsMax =   2.22981867275478E-04  9.42947014114525E-03
 cg2d: Sum(rhs),rhsMax =   2.23036268010735E-04  9.43053220600315E-03
 cg2d: Sum(rhs),rhsMax =   2.23090538333212E-04  9.43159401256360E-03
 cg2d: Sum(rhs),rhsMax =   2.23144674000402E-04  9.43265556413558E-03
 cg2d: Sum(rhs),rhsMax =   2.23198724678351E-04  9.43371686090121E-03
 cg2d: Sum(rhs),rhsMax =   2.23252624827506E-04  9.43477790228749E-03
 cg2d: Sum(rhs),rhsMax =   2.23306414561307E-04  9.43583868834516E-03
 cg2d: Sum(rhs),rhsMax =   2.23360073301232E-04  9.43689922075388E-03
 cg2d: Sum(rhs),rhsMax =   2.23413615151795E-04  9.43795950015297E-03
 cg2d: Sum(rhs),rhsMax =   2.23467018059250E-04  9.43901952587291E-03
 cg2d: Sum(rhs),rhsMax =   2.23520318450604E-04  9.44007929914851E-03
 cg2d: Sum(rhs),rhsMax =   2.23573461670915E-04  9.44113881783289E-03
 cg2d: Sum(rhs),rhsMax =   2.23626499829051E-04  9.44219808860581E-03
 cg2d: Sum(rhs),rhsMax =   2.23679405144268E-04  9.44325710642644E-03
 cg2d: Sum(rhs),rhsMax =   2.23732197038057E-04  9.44431587178389E-03
 cg2d: Sum(rhs),rhsMax =   2.23784871752940E-04  9.44537438548307E-03
 cg2d: Sum(rhs),rhsMax =   2.23837421501560E-04  9.44643265081020E-03
 cg2d: Sum(rhs),rhsMax =   2.23889868843788E-04  9.44749066536712E-03
 cg2d: Sum(rhs),rhsMax =   2.23942167864316E-04  9.44854843054934E-03
 cg2d: Sum(rhs),rhsMax =   2.23994348694873E-04  9.44960594579190E-03
 cg2d: Sum(rhs),rhsMax =   2.24046410865222E-04  9.45066321236748E-03
 cg2d: Sum(rhs),rhsMax =   2.24098342408505E-04  9.45172022967715E-03
 cg2d: Sum(rhs),rhsMax =   2.24150165085790E-04  9.45277700129058E-03
 cg2d: Sum(rhs),rhsMax =   2.24201851601519E-04  9.45383352415574E-03
 cg2d: Sum(rhs),rhsMax =   2.24253420568475E-04  9.45488980029799E-03
 cg2d: Sum(rhs),rhsMax =   2.24304863809010E-04  9.45594582864267E-03
 cg2d: Sum(rhs),rhsMax =   2.24356180955733E-04  9.45700161317305E-03
 cg2d: Sum(rhs),rhsMax =   2.24407379176277E-04  9.45805715030931E-03
 cg2d: Sum(rhs),rhsMax =   2.24458439545796E-04  9.45911244245698E-03
 cg2d: Sum(rhs),rhsMax =   2.24509383936280E-04  9.46016748854508E-03
 cg2d: Sum(rhs),rhsMax =   2.24560212340408E-04  9.46122229272832E-03
 cg2d: Sum(rhs),rhsMax =   2.24610926119551E-04  9.46227685120647E-03
 cg2d: Sum(rhs),rhsMax =   2.24661509790678E-04  9.46333116639542E-03
 cg2d: Sum(rhs),rhsMax =   2.24711965943945E-04  9.46438523718754E-03
 cg2d: Sum(rhs),rhsMax =   2.24762321866870E-04  9.46543906769091E-03
 cg2d: Sum(rhs),rhsMax =   2.24812528912871E-04  9.46649265440915E-03
 cg2d: Sum(rhs),rhsMax =   2.24862619905952E-04  9.46754599935907E-03
 cg2d: Sum(rhs),rhsMax =   2.24912585450165E-04  9.46859910167782E-03
 cg2d: Sum(rhs),rhsMax =   2.24962428349478E-04  9.46965196565363E-03
 cg2d: Sum(rhs),rhsMax =   2.25012160255344E-04  9.47070458740582E-03
 cg2d: Sum(rhs),rhsMax =   2.25061758160939E-04  9.47175696902291E-03
 cg2d: Sum(rhs),rhsMax =   2.25111228771363E-04  9.47280910986816E-03
 cg2d: Sum(rhs),rhsMax =   2.25160597146107E-04  9.47386101412659E-03
 cg2d: Sum(rhs),rhsMax =   2.25209824463963E-04  9.47491267783231E-03
 cg2d: Sum(rhs),rhsMax =   2.25258924536566E-04  9.47596410369243E-03
 cg2d: Sum(rhs),rhsMax =   2.25307917347843E-04  9.47701528994941E-03
(PID.TID 0000.0001)      cg2d_init_res =   6.23073037129124E-03
(PID.TID 0000.0001)      cg2d_iters(min,last) =      -1     381
(PID.TID 0000.0001)      cg2d_last_res =   9.49071701465639E-08
(PID.TID 0000.0001) // =======================================================
(PID.TID 0000.0001) // Begin MONITOR dynamic field statistics
(PID.TID 0000.0001) // =======================================================
(PID.TID 0000.0001) %MON time_tsnumber                =                  6768
(PID.TID 0000.0001) %MON time_secondsf                =   8.1216000000000E+06
(PID.TID 0000.0001) %MON dynstat_eta_max              =   9.4733418608233E-02
(PID.TID 0000.0001) %MON dynstat_eta_min              =  -1.9807542963614E-01
(PID.TID 0000.0001) %MON dynstat_eta_mean             =  -1.0164511403987E-08
(PID.TID 0000.0001) %MON dynstat_eta_sd               =   7.6498719554483E-02
(PID.TID 0000.0001) %MON dynstat_eta_del2             =   4.4613006954391E-07
(PID.TID 0000.0001) %MON dynstat_uvel_max             =   7.0558502963811E-02
(PID.TID 0000.0001) %MON dynstat_uvel_min             =  -8.9517386325248E-02
(PID.TID 0000.0001) %MON dynstat_uvel_mean            =  -9.1986642862744E-08
(PID.TID 0000.0001) %MON dynstat_uvel_sd              =   3.1178019403543E-02
(PID.TID 0000.0001) %MON dynstat_uvel_del2            =   7.4855108381073E-07
(PID.TID 0000.0001) %MON dynstat_vvel_max             =   7.5094223365689E-02
(PID.TID 0000.0001) %MON dynstat_vvel_min             =  -6.4615938701868E-02
(PID.TID 0000.0001) %MON dynstat_vvel_mean            =  -6.1030530994061E-08
(PID.TID 0000.0001) %MON dynstat_vvel_sd              =   2.7951916498258E-02
(PID.TID 0000.0001) %MON dynstat_vvel_del2            =   1.0139913614391E-06
(PID.TID 0000.0001) %MON dynstat_wvel_max             =   1.5702456572908E-08
(PID.TID 0000.0001) %MON dynstat_wvel_min             =  -2.1882820297033E-08
(PID.TID 0000.0001) %MON dynstat_wvel_mean            =  -6.3855586340728E-21
(PID.TID 0000.0001) %MON dynstat_wvel_sd              =   7.7056007354988E-09
(PID.TID 0000.0001) %MON dynstat_wvel_del2            =   6.6250418620589E-14
(PID.TID 0000.0001) %MON dynstat_theta_max            =   2.0000000000000E+01
(PID.TID 0000.0001) %MON dynstat_theta_min            =   2.0000000000000E+01
(PID.TID 0000.0001) %MON dynstat_theta_mean           =   1.9999999999999E+01
(PID.TID 0000.0001) %MON dynstat_theta_sd             =   1.1972645097557E-12
(PID.TID 0000.0001) %MON dynstat_theta_del2           =   0.0000000000000E+00
(PID.TID 0000.0001) %MON dynstat_salt_max             =   3.0000000000000E+01
(PID.TID 0000.0001) %MON dynstat_salt_min             =   3.0000000000000E+01
(PID.TID 0000.0001) %MON dynstat_salt_mean            =   2.9999999999998E+01
(PID.TID 0000.0001) %MON dynstat_salt_sd              =   2.1529444893531E-12
(PID.TID 0000.0001) %MON dynstat_salt_del2            =   0.0000000000000E+00
(PID.TID 0000.0001) %MON trAdv_CFL_u_max              =   2.1482644891340E-02
(PID.TID 0000.0001) %MON trAdv_CFL_v_max              =   1.8019483071416E-02
(PID.TID 0000.0001) %MON trAdv_CFL_w_max              =   3.9623021722026E-09
(PID.TID 0000.0001) %MON advcfl_uvel_max              =   2.1484172718059E-02
(PID.TID 0000.0001) %MON advcfl_vvel_max              =   1.8022613607765E-02
(PID.TID 0000.0001) %MON advcfl_wvel_max              =   1.0503753742576E-08
(PID.TID 0000.0001) %MON advcfl_W_hf_max              =   0.0000000000000E+00
(PID.TID 0000.0001) %MON pe_b_mean                    =   5.9874528810868E-06
(PID.TID 0000.0001) %MON ke_max                       =   4.0071985406790E-03
(PID.TID 0000.0001) %MON ke_mean                      =   8.7274295290908E-04
(PID.TID 0000.0001) %MON ke_vol                       =   7.2529629296391E+15
(PID.TID 0000.0001) %MON vort_r_min                   =  -2.9991720280181E-06
(PID.TID 0000.0001) %MON vort_r_max                   =   2.8177049317469E-06
(PID.TID 0000.0001) %MON vort_a_mean                  =   1.0615000000000E-04
(PID.TID 0000.0001) %MON vort_a_sd                    =   3.5947760401743E-06
(PID.TID 0000.0001) %MON vort_p_mean                  =   1.1210870169429E-04
(PID.TID 0000.0001) %MON vort_p_sd                    =   2.1058797213541E-05
(PID.TID 0000.0001) %MON surfExpan_theta_mean         =  -1.2766364400867E-19
(PID.TID 0000.0001) %MON surfExpan_salt_mean          =  -1.9148520872347E-19
(PID.TID 0000.0001) // =======================================================
(PID.TID 0000.0001) // End MONITOR dynamic field statistics
(PID.TID 0000.0001) // =======================================================
 cg2d: Sum(rhs),rhsMax =   2.25356771736364E-04  9.47806624211131E-03
 cg2d: Sum(rhs),rhsMax =   2.25405515805068E-04  9.47911695535843E-03
 cg2d: Sum(rhs),rhsMax =   2.25454140471350E-04  9.48016743223941E-03
 cg2d: Sum(rhs),rhsMax =   2.25502637626227E-04  9.48121767158239E-03
 cg2d: Sum(rhs),rhsMax =   2.25551001159924E-04  9.48226767854989E-03
 cg2d: Sum(rhs),rhsMax =   2.25599258004075E-04  9.48331744812395E-03
 cg2d: Sum(rhs),rhsMax =   2.25647407808291E-04  9.48436698338917E-03
 cg2d: Sum(rhs),rhsMax =   2.25695409001674E-04  9.48541628284037E-03
 cg2d: Sum(rhs),rhsMax =   2.25743302867266E-04  9.48646535153006E-03
 cg2d: Sum(rhs),rhsMax =   2.25791070639804E-04  9.48751418500095E-03
 cg2d: Sum(rhs),rhsMax =   2.25838726623765E-04  9.48856278630971E-03
 cg2d: Sum(rhs),rhsMax =   2.25886238452239E-04  9.48961115278370E-03
 cg2d: Sum(rhs),rhsMax =   2.25933657419530E-04  9.49065929175390E-03
 cg2d: Sum(rhs),rhsMax =   2.25980935820273E-04  9.49170719693211E-03
 cg2d: Sum(rhs),rhsMax =   2.26028100477758E-04  9.49275487062361E-03
 cg2d: Sum(rhs),rhsMax =   2.26075147056474E-04  9.49380231158106E-03
 cg2d: Sum(rhs),rhsMax =   2.26122074616190E-04  9.49484952734003E-03
 cg2d: Sum(rhs),rhsMax =   2.26168869224053E-04  9.49589651139100E-03
 cg2d: Sum(rhs),rhsMax =   2.26215562303417E-04  9.49694326495736E-03
 cg2d: Sum(rhs),rhsMax =   2.26262124699710E-04  9.49798978819190E-03
 cg2d: Sum(rhs),rhsMax =   2.26308573704849E-04  9.49903608706786E-03
 cg2d: Sum(rhs),rhsMax =   2.26354891683643E-04  9.50008215611662E-03
 cg2d: Sum(rhs),rhsMax =   2.26401116749674E-04  9.50112799896531E-03
 cg2d: Sum(rhs),rhsMax =   2.26447197511789E-04  9.50217361224440E-03
 cg2d: Sum(rhs),rhsMax =   2.26493172231701E-04  9.50321900422099E-03
 cg2d: Sum(rhs),rhsMax =   2.26538981486895E-04  9.50426416832507E-03
 cg2d: Sum(rhs),rhsMax =   2.26584698919799E-04  9.50530910570620E-03
 cg2d: Sum(rhs),rhsMax =   2.26630264950343E-04  9.50635381474743E-03
 cg2d: Sum(rhs),rhsMax =   2.26675740161185E-04  9.50739830545491E-03
 cg2d: Sum(rhs),rhsMax =   2.26721099945223E-04  9.50844256834438E-03
 cg2d: Sum(rhs),rhsMax =   2.26766357587267E-04  9.50948660933403E-03
 cg2d: Sum(rhs),rhsMax =   2.26811473494808E-04  9.51053042425088E-03
 cg2d: Sum(rhs),rhsMax =   2.26856481648269E-04  9.51157402279713E-03
 cg2d: Sum(rhs),rhsMax =   2.26901359670564E-04  9.51261739634743E-03
 cg2d: Sum(rhs),rhsMax =   2.26946125986487E-04  9.51366054791176E-03
 cg2d: Sum(rhs),rhsMax =   2.26990746846114E-04  9.51470347653771E-03
 cg2d: Sum(rhs),rhsMax =   2.27035288686936E-04  9.51574618827171E-03
 cg2d: Sum(rhs),rhsMax =   2.27079692786500E-04  9.51678867801275E-03
 cg2d: Sum(rhs),rhsMax =   2.27123967039276E-04  9.51783094861172E-03
 cg2d: Sum(rhs),rhsMax =   2.27168125420328E-04  9.51887299799296E-03
 cg2d: Sum(rhs),rhsMax =   2.27212205587161E-04  9.51991483144085E-03
 cg2d: Sum(rhs),rhsMax =   2.27256102773887E-04  9.52095644292558E-03
 cg2d: Sum(rhs),rhsMax =   2.27299909478222E-04  9.52199783871488E-03
 cg2d: Sum(rhs),rhsMax =   2.27343594419449E-04  9.52303901642177E-03
 cg2d: Sum(rhs),rhsMax =   2.27387157222246E-04  9.52407997878260E-03
 cg2d: Sum(rhs),rhsMax =   2.27430627544498E-04  9.52512072586656E-03
 cg2d: Sum(rhs),rhsMax =   2.27473985330602E-04  9.52616125670331E-03
 cg2d: Sum(rhs),rhsMax =   2.27517200877540E-04  9.52720157152995E-03
 cg2d: Sum(rhs),rhsMax =   2.27560315728076E-04  9.52824167095858E-03
 cg2d: Sum(rhs),rhsMax =   2.27603292136459E-04  9.52928155755269E-03
 cg2d: Sum(rhs),rhsMax =   2.27646135402364E-04  9.53032122659378E-03
 cg2d: Sum(rhs),rhsMax =   2.27688880509083E-04  9.53136068729796E-03
 cg2d: Sum(rhs),rhsMax =   2.27731508539773E-04  9.53239993398210E-03
 cg2d: Sum(rhs),rhsMax =   2.27774047523964E-04  9.53343896946079E-03
 cg2d: Sum(rhs),rhsMax =   2.27816417101482E-04  9.53447779125489E-03
 cg2d: Sum(rhs),rhsMax =   2.27858710729273E-04  9.53551640085464E-03
 cg2d: Sum(rhs),rhsMax =   2.27900865936907E-04  9.53655479972247E-03
 cg2d: Sum(rhs),rhsMax =   2.27942897037588E-04  9.53759298967017E-03
 cg2d: Sum(rhs),rhsMax =   2.27984836629324E-04  9.53863096873973E-03
 cg2d: Sum(rhs),rhsMax =   2.28026656380253E-04  9.53966873950969E-03
 cg2d: Sum(rhs),rhsMax =   2.28068315547156E-04  9.54070629727684E-03
 cg2d: Sum(rhs),rhsMax =   2.28109878763528E-04  9.54174365436562E-03
 cg2d: Sum(rhs),rhsMax =   2.28151320484831E-04  9.54278080241789E-03
 cg2d: Sum(rhs),rhsMax =   2.28192656713611E-04  9.54381774037209E-03
 cg2d: Sum(rhs),rhsMax =   2.28233878682130E-04  9.54485447118433E-03
 cg2d: Sum(rhs),rhsMax =   2.28274985182603E-04  9.54589099694330E-03
 cg2d: Sum(rhs),rhsMax =   2.28315970242240E-04  9.54692731652744E-03
 cg2d: Sum(rhs),rhsMax =   2.28356838230252E-04  9.54796343064859E-03
 cg2d: Sum(rhs),rhsMax =   2.28397548502353E-04  9.54899933783293E-03
 cg2d: Sum(rhs),rhsMax =   2.28438183351750E-04  9.55003504501267E-03
 cg2d: Sum(rhs),rhsMax =   2.28478698740198E-04  9.55107054588537E-03
 cg2d: Sum(rhs),rhsMax =   2.28519086368889E-04  9.55210584315203E-03
(PID.TID 0000.0001)      cg2d_init_res =   6.13366878305619E-03
(PID.TID 0000.0001)      cg2d_iters(min,last) =      -1     381
(PID.TID 0000.0001)      cg2d_last_res =   9.00902989670584E-08
(PID.TID 0000.0001) // =======================================================
(PID.TID 0000.0001) // Begin MONITOR dynamic field statistics
(PID.TID 0000.0001) // =======================================================
(PID.TID 0000.0001) %MON time_tsnumber                =                  6840
(PID.TID 0000.0001) %MON time_secondsf                =   8.2080000000000E+06
(PID.TID 0000.0001) %MON dynstat_eta_max              =   9.5358809399032E-02
(PID.TID 0000.0001) %MON dynstat_eta_min              =  -1.9968580962797E-01
(PID.TID 0000.0001) %MON dynstat_eta_mean             =  -1.0390617591248E-08
(PID.TID 0000.0001) %MON dynstat_eta_sd               =   7.7008154931602E-02
(PID.TID 0000.0001) %MON dynstat_eta_del2             =   4.4941521104899E-07
(PID.TID 0000.0001) %MON dynstat_uvel_max             =   7.1171328927141E-02
(PID.TID 0000.0001) %MON dynstat_uvel_min             =  -8.9969532280138E-02
(PID.TID 0000.0001) %MON dynstat_uvel_mean            =  -6.9173565770779E-08
(PID.TID 0000.0001) %MON dynstat_uvel_sd              =   3.1361266514394E-02
(PID.TID 0000.0001) %MON dynstat_uvel_del2            =   7.4982707625338E-07
(PID.TID 0000.0001) %MON dynstat_vvel_max             =   7.6031298047229E-02
(PID.TID 0000.0001) %MON dynstat_vvel_min             =  -6.5149066478489E-02
(PID.TID 0000.0001) %MON dynstat_vvel_mean            =  -4.2552986562332E-08
(PID.TID 0000.0001) %MON dynstat_vvel_sd              =   2.8209485123773E-02
(PID.TID 0000.0001) %MON dynstat_vvel_del2            =   1.0197093098198E-06
(PID.TID 0000.0001) %MON dynstat_wvel_max             =   1.4287944544340E-08
(PID.TID 0000.0001) %MON dynstat_wvel_min             =  -2.1815314241685E-08
(PID.TID 0000.0001) %MON dynstat_wvel_mean            =   2.8411783379926E-21
(PID.TID 0000.0001) %MON dynstat_wvel_sd              =   7.6474693606921E-09
(PID.TID 0000.0001) %MON dynstat_wvel_del2            =   6.5859341001214E-14
(PID.TID 0000.0001) %MON dynstat_theta_max            =   2.0000000000000E+01
(PID.TID 0000.0001) %MON dynstat_theta_min            =   2.0000000000000E+01
(PID.TID 0000.0001) %MON dynstat_theta_mean           =   1.9999999999999E+01
(PID.TID 0000.0001) %MON dynstat_theta_sd             =   1.1972645097557E-12
(PID.TID 0000.0001) %MON dynstat_theta_del2           =   0.0000000000000E+00
(PID.TID 0000.0001) %MON dynstat_salt_max             =   3.0000000000000E+01
(PID.TID 0000.0001) %MON dynstat_salt_min             =   3.0000000000000E+01
(PID.TID 0000.0001) %MON dynstat_salt_mean            =   2.9999999999998E+01
(PID.TID 0000.0001) %MON dynstat_salt_sd              =   2.1529444893531E-12
(PID.TID 0000.0001) %MON dynstat_salt_del2            =   0.0000000000000E+00
(PID.TID 0000.0001) %MON trAdv_CFL_u_max              =   2.1591200021420E-02
(PID.TID 0000.0001) %MON trAdv_CFL_v_max              =   1.8244397499923E-02
(PID.TID 0000.0001) %MON trAdv_CFL_w_max              =   3.5982905919081E-09
(PID.TID 0000.0001) %MON advcfl_uvel_max              =   2.1592687747233E-02
(PID.TID 0000.0001) %MON advcfl_vvel_max              =   1.8247511531335E-02
(PID.TID 0000.0001) %MON advcfl_wvel_max              =   1.0471350836009E-08
(PID.TID 0000.0001) %MON advcfl_W_hf_max              =   0.0000000000000E+00
(PID.TID 0000.0001) %MON pe_b_mean                    =   6.0674640668680E-06
(PID.TID 0000.0001) %MON ke_max                       =   4.0477828860569E-03
(PID.TID 0000.0001) %MON ke_mean                      =   8.8564738174465E-04
(PID.TID 0000.0001) %MON ke_vol                       =   7.2529629296391E+15
(PID.TID 0000.0001) %MON vort_r_min                   =  -3.0231497601224E-06
(PID.TID 0000.0001) %MON vort_r_max                   =   2.8315029690556E-06
(PID.TID 0000.0001) %MON vort_a_mean                  =   1.0615000000000E-04
(PID.TID 0000.0001) %MON vort_a_sd                    =   3.5951818748452E-06
(PID.TID 0000.0001) %MON vort_p_mean                  =   1.1210870169429E-04
(PID.TID 0000.0001) %MON vort_p_sd                    =   2.1058927453214E-05
(PID.TID 0000.0001) %MON surfExpan_theta_mean         =   5.6761088143921E-20
(PID.TID 0000.0001) %MON surfExpan_salt_mean          =   8.5215330653382E-20
(PID.TID 0000.0001) // =======================================================
(PID.TID 0000.0001) // End MONITOR dynamic field statistics
(PID.TID 0000.0001) // =======================================================
 cg2d: Sum(rhs),rhsMax =   2.28559359386774E-04  9.55314093827115E-03
 cg2d: Sum(rhs),rhsMax =   2.28599533464774E-04  9.55417583167091E-03
 cg2d: Sum(rhs),rhsMax =   2.28639581506733E-04  9.55521052367780E-03
 cg2d: Sum(rhs),rhsMax =   2.28679512090687E-04  9.55624501456249E-03
 cg2d: Sum(rhs),rhsMax =   2.28719319997871E-04  9.55727930463940E-03
 cg2d: Sum(rhs),rhsMax =   2.28759027570274E-04  9.55831339501319E-03
 cg2d: Sum(rhs),rhsMax =   2.28798603072868E-04  9.55934728490498E-03
 cg2d: Sum(rhs),rhsMax =   2.28838065460615E-04  9.56038097727592E-03
 cg2d: Sum(rhs),rhsMax =   2.28877379219420E-04  9.56141446809585E-03
 cg2d: Sum(rhs),rhsMax =   2.28916604022253E-04  9.56244776496802E-03
 cg2d: Sum(rhs),rhsMax =   2.28955680687381E-04  9.56348086216704E-03
 cg2d: Sum(rhs),rhsMax =   2.28994679717079E-04  9.56451376266592E-03
 cg2d: Sum(rhs),rhsMax =   2.29033531492980E-04  9.56554646564113E-03
 cg2d: Sum(rhs),rhsMax =   2.29072285463820E-04  9.56657897396404E-03
 cg2d: Sum(rhs),rhsMax =   2.29110907933979E-04  9.56761128540981E-03
 cg2d: Sum(rhs),rhsMax =   2.29149436987330E-04  9.56864340354475E-03
 cg2d: Sum(rhs),rhsMax =   2.29187815001334E-04  9.56967532285923E-03
 cg2d: Sum(rhs),rhsMax =   2.29226083867684E-04  9.57070705346533E-03
 cg2d: Sum(rhs),rhsMax =   2.29264243792460E-04  9.57173858954410E-03
 cg2d: Sum(rhs),rhsMax =   2.29302295035745E-04  9.57276993186130E-03
 cg2d: Sum(rhs),rhsMax =   2.29340184820705E-04  9.57380108295943E-03
 cg2d: Sum(rhs),rhsMax =   2.29378002634202E-04  9.57483204069404E-03
 cg2d: Sum(rhs),rhsMax =   2.29415705157873E-04  9.57586280924067E-03
 cg2d: Sum(rhs),rhsMax =   2.29453255734528E-04  9.57689338321630E-03
 cg2d: Sum(rhs),rhsMax =   2.29490697228487E-04  9.57792377299701E-03
 cg2d: Sum(rhs),rhsMax =   2.29528030886359E-04  9.57895397087236E-03
 cg2d: Sum(rhs),rhsMax =   2.29565236037064E-04  9.57998397872808E-03
 cg2d: Sum(rhs),rhsMax =   2.29602330479303E-04  9.58101379595313E-03
 cg2d: Sum(rhs),rhsMax =   2.29639294519838E-04  9.58204342799928E-03
 cg2d: Sum(rhs),rhsMax =   2.29676136058220E-04  9.58307287032533E-03
 cg2d: Sum(rhs),rhsMax =   2.29712862110886E-04  9.58410212746380E-03
 cg2d: Sum(rhs),rhsMax =   2.29749457082058E-04  9.58513119561993E-03
 cg2d: Sum(rhs),rhsMax =   2.29785952103457E-04  9.58616008123141E-03
 cg2d: Sum(rhs),rhsMax =   2.29822302770775E-04  9.58718877841311E-03
 cg2d: Sum(rhs),rhsMax =   2.29858542160812E-04  9.58821729225492E-03
 cg2d: Sum(rhs),rhsMax =   2.29894663841226E-04  9.58924561943345E-03
 cg2d: Sum(rhs),rhsMax =   2.29930673794940E-04  9.59027376639418E-03
 cg2d: Sum(rhs),rhsMax =   2.29966542122820E-04  9.59130172658551E-03
 cg2d: Sum(rhs),rhsMax =   2.30002304781712E-04  9.59232950728115E-03
 cg2d: Sum(rhs),rhsMax =   2.30037921661017E-04  9.59335710269726E-03
 cg2d: Sum(rhs),rhsMax =   2.30073428077312E-04  9.59438452009735E-03
 cg2d: Sum(rhs),rhsMax =   2.30108817637444E-04  9.59541175358115E-03
 cg2d: Sum(rhs),rhsMax =   2.30144100343914E-04  9.59643880789154E-03
 cg2d: Sum(rhs),rhsMax =   2.30185498716996E-04  9.59746568534269E-03
 cg2d: Sum(rhs),rhsMax =   2.30226782137957E-04  9.59849237968731E-03
 cg2d: Sum(rhs),rhsMax =   2.30267950516731E-04  9.59951889192396E-03
 cg2d: Sum(rhs),rhsMax =   2.30308959306652E-04  9.60054523012559E-03
 cg2d: Sum(rhs),rhsMax =   2.30349832157610E-04  9.60157138639873E-03
 cg2d: Sum(rhs),rhsMax =   2.30390591471031E-04  9.60259736907598E-03
 cg2d: Sum(rhs),rhsMax =   2.30431179772114E-04  9.60362316969140E-03
 cg2d: Sum(rhs),rhsMax =   2.30471651684576E-04  9.60464879903303E-03
 cg2d: Sum(rhs),rhsMax =   2.30511965720421E-04  9.60567425282291E-03
 cg2d: Sum(rhs),rhsMax =   2.30552157106939E-04  9.60669952948111E-03
 cg2d: Sum(rhs),rhsMax =   2.30592222100680E-04  9.60772462851814E-03
 cg2d: Sum(rhs),rhsMax =   2.30632136999575E-04  9.60874955782441E-03
 cg2d: Sum(rhs),rhsMax =   2.30678673076332E-04  9.60977432756268E-03
 cg2d: Sum(rhs),rhsMax =   2.30725044922558E-04  9.61079890856081E-03
 cg2d: Sum(rhs),rhsMax =   2.30771293981843E-04  9.61182331834710E-03
 cg2d: Sum(rhs),rhsMax =   2.30817342241986E-04  9.61284755317193E-03
 cg2d: Sum(rhs),rhsMax =   2.30863274047425E-04  9.61387161992922E-03
 cg2d: Sum(rhs),rhsMax =   2.30908997549994E-04  9.61489550998244E-03
 cg2d: Sum(rhs),rhsMax =   2.30954617564515E-04  9.61591923615980E-03
 cg2d: Sum(rhs),rhsMax =   2.31000079809229E-04  9.61694278999743E-03
 cg2d: Sum(rhs),rhsMax =   2.31045399623193E-04  9.61796617554494E-03
 cg2d: Sum(rhs),rhsMax =   2.31090550020687E-04  9.61898938950786E-03
 cg2d: Sum(rhs),rhsMax =   2.31135554653499E-04  9.62001243907776E-03
 cg2d: Sum(rhs),rhsMax =   2.31180401462050E-04  9.62103531730173E-03
 cg2d: Sum(rhs),rhsMax =   2.31225089372580E-04  9.62205803312125E-03
 cg2d: Sum(rhs),rhsMax =   2.31269573912958E-04  9.62308057720311E-03
 cg2d: Sum(rhs),rhsMax =   2.31313933522078E-04  9.62410296045275E-03
 cg2d: Sum(rhs),rhsMax =   2.31358115303788E-04  9.62512517409142E-03
 cg2d: Sum(rhs),rhsMax =   2.31402169601691E-04  9.62614722725921E-03
(PID.TID 0000.0001)      cg2d_init_res =   6.03805256089062E-03
(PID.TID 0000.0001)      cg2d_iters(min,last) =      -1     379
(PID.TID 0000.0001)      cg2d_last_res =   9.88052463755843E-08
(PID.TID 0000.0001) // =======================================================
(PID.TID 0000.0001) // Begin MONITOR dynamic field statistics
(PID.TID 0000.0001) // =======================================================
(PID.TID 0000.0001) %MON time_tsnumber                =                  6912
(PID.TID 0000.0001) %MON time_secondsf                =   8.2944000000000E+06
(PID.TID 0000.0001) %MON dynstat_eta_max              =   9.5926731631791E-02
(PID.TID 0000.0001) %MON dynstat_eta_min              =  -2.0126276046825E-01
(PID.TID 0000.0001) %MON dynstat_eta_mean             =  -1.0603384338292E-08
(PID.TID 0000.0001) %MON dynstat_eta_sd               =   7.7508880391734E-02
(PID.TID 0000.0001) %MON dynstat_eta_del2             =   4.5259854184008E-07
(PID.TID 0000.0001) %MON dynstat_uvel_max             =   7.1701884365880E-02
(PID.TID 0000.0001) %MON dynstat_uvel_min             =  -9.0410295162803E-02
(PID.TID 0000.0001) %MON dynstat_uvel_mean            =  -4.1479899961134E-08
(PID.TID 0000.0001) %MON dynstat_uvel_sd              =   3.1533003754431E-02
(PID.TID 0000.0001) %MON dynstat_uvel_del2            =   7.5102808895512E-07
(PID.TID 0000.0001) %MON dynstat_vvel_max             =   7.6960828351787E-02
(PID.TID 0000.0001) %MON dynstat_vvel_min             =  -6.5673630502342E-02
(PID.TID 0000.0001) %MON dynstat_vvel_mean            =  -2.8903873316022E-08
(PID.TID 0000.0001) %MON dynstat_vvel_sd              =   2.8472039589738E-02
(PID.TID 0000.0001) %MON dynstat_vvel_del2            =   1.0246991452254E-06
(PID.TID 0000.0001) %MON dynstat_wvel_max             =   1.2934944519075E-08
(PID.TID 0000.0001) %MON dynstat_wvel_min             =  -2.1677491017617E-08
(PID.TID 0000.0001) %MON dynstat_wvel_mean            =   3.9654723452882E-22
(PID.TID 0000.0001) %MON dynstat_wvel_sd              =   7.5906901650147E-09
(PID.TID 0000.0001) %MON dynstat_wvel_del2            =   6.5596112329446E-14
(PID.TID 0000.0001) %MON dynstat_theta_max            =   2.0000000000000E+01
(PID.TID 0000.0001) %MON dynstat_theta_min            =   2.0000000000000E+01
(PID.TID 0000.0001) %MON dynstat_theta_mean           =   1.9999999999999E+01
(PID.TID 0000.0001) %MON dynstat_theta_sd             =   1.1972645097557E-12
(PID.TID 0000.0001) %MON dynstat_theta_del2           =   0.0000000000000E+00
(PID.TID 0000.0001) %MON dynstat_salt_max             =   3.0000000000000E+01
(PID.TID 0000.0001) %MON dynstat_salt_min             =   3.0000000000000E+01
(PID.TID 0000.0001) %MON dynstat_salt_mean            =   2.9999999999998E+01
(PID.TID 0000.0001) %MON dynstat_salt_sd              =   2.1529444893531E-12
(PID.TID 0000.0001) %MON dynstat_salt_del2            =   0.0000000000000E+00
(PID.TID 0000.0001) %MON trAdv_CFL_u_max              =   2.1697018905479E-02
(PID.TID 0000.0001) %MON trAdv_CFL_v_max              =   1.8467518347325E-02
(PID.TID 0000.0001) %MON trAdv_CFL_w_max              =   3.2521074517018E-09
(PID.TID 0000.0001) %MON advcfl_uvel_max              =   2.1698470839073E-02
(PID.TID 0000.0001) %MON advcfl_vvel_max              =   1.8470598804429E-02
(PID.TID 0000.0001) %MON advcfl_wvel_max              =   1.0405195688456E-08
(PID.TID 0000.0001) %MON advcfl_W_hf_max              =   0.0000000000000E+00
(PID.TID 0000.0001) %MON pe_b_mean                    =   6.1466248018807E-06
(PID.TID 0000.0001) %MON ke_max                       =   4.0875414606420E-03
(PID.TID 0000.0001) %MON ke_mean                      =   8.9843121456388E-04
(PID.TID 0000.0001) %MON ke_vol                       =   7.2529629296391E+15
(PID.TID 0000.0001) %MON vort_r_min                   =  -3.0469876072615E-06
(PID.TID 0000.0001) %MON vort_r_max                   =   2.8414490806736E-06
(PID.TID 0000.0001) %MON vort_a_mean                  =   1.0615000000000E-04
(PID.TID 0000.0001) %MON vort_a_sd                    =   3.5955735831031E-06
(PID.TID 0000.0001) %MON vort_p_mean                  =   1.1210870169429E-04
(PID.TID 0000.0001) %MON vort_p_sd                    =   2.1059060231733E-05
(PID.TID 0000.0001) %MON surfExpan_theta_mean         =   7.7052251815413E-21
(PID.TID 0000.0001) %MON surfExpan_salt_mean          =   1.1558420145894E-20
(PID.TID 0000.0001) // =======================================================
(PID.TID 0000.0001) // End MONITOR dynamic field statistics
(PID.TID 0000.0001) // =======================================================
 cg2d: Sum(rhs),rhsMax =   2.31446045738312E-04  9.62716911274412E-03
 cg2d: Sum(rhs),rhsMax =   2.31489777241153E-04  9.62819083629084E-03
 cg2d: Sum(rhs),rhsMax =   2.31533347307118E-04  9.62921239261100E-03
 cg2d: Sum(rhs),rhsMax =   2.31576784295310E-04  9.63023379049201E-03
 cg2d: Sum(rhs),rhsMax =   2.31620033727528E-04  9.63125502048416E-03
 cg2d: Sum(rhs),rhsMax =   2.31663109839318E-04  9.63227609683871E-03
 cg2d: Sum(rhs),rhsMax =   2.31706042646810E-04  9.63329700765752E-03
 cg2d: Sum(rhs),rhsMax =   2.31748808590098E-04  9.63431775961289E-03
 cg2d: Sum(rhs),rhsMax =   2.31791432845544E-04  9.63533834853390E-03
 cg2d: Sum(rhs),rhsMax =   2.31833887509001E-04  9.63635878220900E-03
 cg2d: Sum(rhs),rhsMax =   2.31876170636578E-04  9.63737905289952E-03
 cg2d: Sum(rhs),rhsMax =   2.31918297522175E-04  9.63839917086528E-03
 cg2d: Sum(rhs),rhsMax =   2.31960244919066E-04  9.63941912724180E-03
 cg2d: Sum(rhs),rhsMax =   2.32002045372100E-04  9.64043892762911E-03
 cg2d: Sum(rhs),rhsMax =   2.32043668939608E-04  9.64145857016670E-03
 cg2d: Sum(rhs),rhsMax =   2.32085146393730E-04  9.64247805743785E-03
 cg2d: Sum(rhs),rhsMax =   2.32126446345892E-04  9.64349738960770E-03
 cg2d: Sum(rhs),rhsMax =   2.32167580001009E-04  9.64451656586755E-03
 cg2d: Sum(rhs),rhsMax =   2.32208557989068E-04  9.64553558866766E-03
 cg2d: Sum(rhs),rhsMax =   2.32249355695567E-04  9.64655445622396E-03
 cg2d: Sum(rhs),rhsMax =   2.32290017117009E-04  9.64757317239847E-03
 cg2d: Sum(rhs),rhsMax =   2.32330498592106E-04  9.64859173434421E-03
 cg2d: Sum(rhs),rhsMax =   2.32370810304401E-04  9.64961014416285E-03
 cg2d: Sum(rhs),rhsMax =   2.32410962403692E-04  9.65062840125415E-03
 cg2d: Sum(rhs),rhsMax =   2.32450955167411E-04  9.65164651035471E-03
 cg2d: Sum(rhs),rhsMax =   2.32490774500303E-04  9.65266446734557E-03
 cg2d: Sum(rhs),rhsMax =   2.32530417768276E-04  9.65368227454821E-03
 cg2d: Sum(rhs),rhsMax =   2.32569893784075E-04  9.65469993114424E-03
 cg2d: Sum(rhs),rhsMax =   2.32609203836359E-04  9.65571744110424E-03
 cg2d: Sum(rhs),rhsMax =   2.32648359339435E-04  9.65673480170025E-03
 cg2d: Sum(rhs),rhsMax =   2.32687340104804E-04  9.65775201424111E-03
 cg2d: Sum(rhs),rhsMax =   2.32726139665471E-04  9.65876907809201E-03
 cg2d: Sum(rhs),rhsMax =   2.32764776453195E-04  9.65978599869047E-03
 cg2d: Sum(rhs),rhsMax =   2.32803231976865E-04  9.66080277153976E-03
 cg2d: Sum(rhs),rhsMax =   2.32841525163898E-04  9.66181939823214E-03
 cg2d: Sum(rhs),rhsMax =   2.32879632936821E-04  9.66283587827897E-03
 cg2d: Sum(rhs),rhsMax =   2.32917611159211E-04  9.66385221835208E-03
 cg2d: Sum(rhs),rhsMax =   2.32955370546519E-04  9.66486841262654E-03
 cg2d: Sum(rhs),rhsMax =   2.32992972735274E-04  9.66588446299867E-03
 cg2d: Sum(rhs),rhsMax =   2.33030403048286E-04  9.66690036947720E-03
 cg2d: Sum(rhs),rhsMax =   2.33067678687297E-04  9.66791613705873E-03
 cg2d: Sum(rhs),rhsMax =   2.33104762355734E-04  9.66893176130652E-03
 cg2d: Sum(rhs),rhsMax =   2.33141700010037E-04  9.66994724408505E-03
 cg2d: Sum(rhs),rhsMax =   2.33178442960310E-04  9.67096258479570E-03
 cg2d: Sum(rhs),rhsMax =   2.33215036282517E-04  9.67197778927304E-03
 cg2d: Sum(rhs),rhsMax =   2.33251454286244E-04  9.67299285248719E-03
 cg2d: Sum(rhs),rhsMax =   2.33287704875983E-04  9.67400777653084E-03
 cg2d: Sum(rhs),rhsMax =   2.33323773088630E-04  9.67502256065401E-03
 cg2d: Sum(rhs),rhsMax =   2.33359673562585E-04  9.67603721097551E-03
 cg2d: Sum(rhs),rhsMax =   2.33395395003968E-04  9.67705172203049E-03
 cg2d: Sum(rhs),rhsMax =   2.33430940809808E-04  9.67806609628731E-03
 cg2d: Sum(rhs),rhsMax =   2.33466314566723E-04  9.67908033278622E-03
 cg2d: Sum(rhs),rhsMax =   2.33501505692305E-04  9.68009443769779E-03
 cg2d: Sum(rhs),rhsMax =   2.33536533927070E-04  9.68110840555174E-03
 cg2d: Sum(rhs),rhsMax =   2.33571403246905E-04  9.68212223929082E-03
 cg2d: Sum(rhs),rhsMax =   2.33606086524955E-04  9.68313593698220E-03
 cg2d: Sum(rhs),rhsMax =   2.33640596648686E-04  9.68414950584037E-03
 cg2d: Sum(rhs),rhsMax =   2.33674925155808E-04  9.68516293973673E-03
 cg2d: Sum(rhs),rhsMax =   2.33709091477257E-04  9.68617624124781E-03
 cg2d: Sum(rhs),rhsMax =   2.33743093586732E-04  9.68718940941131E-03
 cg2d: Sum(rhs),rhsMax =   2.33776899611002E-04  9.68820245044118E-03
 cg2d: Sum(rhs),rhsMax =   2.33810555529686E-04  9.68921535861869E-03
 cg2d: Sum(rhs),rhsMax =   2.33844050615505E-04  9.69022813724609E-03
 cg2d: Sum(rhs),rhsMax =   2.33877353083455E-04  9.69124078426075E-03
 cg2d: Sum(rhs),rhsMax =   2.33910485310379E-04  9.69225330665304E-03
 cg2d: Sum(rhs),rhsMax =   2.33943454170757E-04  9.69326569850494E-03
 cg2d: Sum(rhs),rhsMax =   2.33976269033506E-04  9.69427796348409E-03
 cg2d: Sum(rhs),rhsMax =   2.34008893657062E-04  9.69529009841457E-03
 cg2d: Sum(rhs),rhsMax =   2.34041362055928E-04  9.69630211196034E-03
 cg2d: Sum(rhs),rhsMax =   2.34073637274464E-04  9.69731399685422E-03
 cg2d: Sum(rhs),rhsMax =   2.34105750326377E-04  9.69832575599678E-03
 cg2d: Sum(rhs),rhsMax =   2.34137688124917E-04  9.69933738785162E-03
(PID.TID 0000.0001)      cg2d_init_res =   5.94064287751920E-03
(PID.TID 0000.0001)      cg2d_iters(min,last) =      -1     379
(PID.TID 0000.0001)      cg2d_last_res =   9.25398587237950E-08
(PID.TID 0000.0001) // =======================================================
(PID.TID 0000.0001) // Begin MONITOR dynamic field statistics
(PID.TID 0000.0001) // =======================================================
(PID.TID 0000.0001) %MON time_tsnumber                =                  6984
(PID.TID 0000.0001) %MON time_secondsf                =   8.3808000000000E+06
(PID.TID 0000.0001) %MON dynstat_eta_max              =   9.6424273125162E-02
(PID.TID 0000.0001) %MON dynstat_eta_min              =  -2.0281915325389E-01
(PID.TID 0000.0001) %MON dynstat_eta_mean             =  -1.0809703012573E-08
(PID.TID 0000.0001) %MON dynstat_eta_sd               =   7.8001334197236E-02
(PID.TID 0000.0001) %MON dynstat_eta_del2             =   4.5567967392180E-07
(PID.TID 0000.0001) %MON dynstat_uvel_max             =   7.2156582152491E-02
(PID.TID 0000.0001) %MON dynstat_uvel_min             =  -9.0841008056122E-02
(PID.TID 0000.0001) %MON dynstat_uvel_mean            =  -1.0118361564113E-08
(PID.TID 0000.0001) %MON dynstat_uvel_sd              =   3.1695118834650E-02
(PID.TID 0000.0001) %MON dynstat_uvel_del2            =   7.5223607341817E-07
(PID.TID 0000.0001) %MON dynstat_vvel_max             =   7.7883065104486E-02
(PID.TID 0000.0001) %MON dynstat_vvel_min             =  -6.6190706241381E-02
(PID.TID 0000.0001) %MON dynstat_vvel_mean            =  -2.0731365734931E-08
(PID.TID 0000.0001) %MON dynstat_vvel_sd              =   2.8737285737653E-02
(PID.TID 0000.0001) %MON dynstat_vvel_del2            =   1.0289328934006E-06
(PID.TID 0000.0001) %MON dynstat_wvel_max             =   1.1679109098040E-08
(PID.TID 0000.0001) %MON dynstat_wvel_min             =  -2.1460769231198E-08
(PID.TID 0000.0001) %MON dynstat_wvel_mean            =   3.1835475610711E-21
(PID.TID 0000.0001) %MON dynstat_wvel_sd              =   7.5380982249627E-09
(PID.TID 0000.0001) %MON dynstat_wvel_del2            =   6.5197369923471E-14
(PID.TID 0000.0001) %MON dynstat_theta_max            =   2.0000000000000E+01
(PID.TID 0000.0001) %MON dynstat_theta_min            =   2.0000000000000E+01
(PID.TID 0000.0001) %MON dynstat_theta_mean           =   1.9999999999999E+01
(PID.TID 0000.0001) %MON dynstat_theta_sd             =   1.1972645097557E-12
(PID.TID 0000.0001) %MON dynstat_theta_del2           =   0.0000000000000E+00
(PID.TID 0000.0001) %MON dynstat_salt_max             =   3.0000000000000E+01
(PID.TID 0000.0001) %MON dynstat_salt_min             =   3.0000000000000E+01
(PID.TID 0000.0001) %MON dynstat_salt_mean            =   2.9999999999998E+01
(PID.TID 0000.0001) %MON dynstat_salt_sd              =   2.1529444893531E-12
(PID.TID 0000.0001) %MON dynstat_salt_del2            =   0.0000000000000E+00
(PID.TID 0000.0001) %MON trAdv_CFL_u_max              =   2.1800421245679E-02
(PID.TID 0000.0001) %MON trAdv_CFL_v_max              =   1.8688841492500E-02
(PID.TID 0000.0001) %MON trAdv_CFL_w_max              =   2.9301254325365E-09
(PID.TID 0000.0001) %MON advcfl_uvel_max              =   2.1801841933469E-02
(PID.TID 0000.0001) %MON advcfl_vvel_max              =   1.8691935625077E-02
(PID.TID 0000.0001) %MON advcfl_wvel_max              =   1.0301169230975E-08
(PID.TID 0000.0001) %MON advcfl_W_hf_max              =   0.0000000000000E+00
(PID.TID 0000.0001) %MON pe_b_mean                    =   6.2249782647988E-06
(PID.TID 0000.0001) %MON ke_max                       =   4.1265802866464E-03
(PID.TID 0000.0001) %MON ke_mean                      =   9.1108638391224E-04
(PID.TID 0000.0001) %MON ke_vol                       =   7.2529629296391E+15
(PID.TID 0000.0001) %MON vort_r_min                   =  -3.0705826992708E-06
(PID.TID 0000.0001) %MON vort_r_max                   =   2.8475487270142E-06
(PID.TID 0000.0001) %MON vort_a_mean                  =   1.0615000000000E-04
(PID.TID 0000.0001) %MON vort_a_sd                    =   3.5959514713183E-06
(PID.TID 0000.0001) %MON vort_p_mean                  =   1.1210870169429E-04
(PID.TID 0000.0001) %MON vort_p_sd                    =   2.1059192815238E-05
(PID.TID 0000.0001) %MON surfExpan_theta_mean         =   6.3519524170942E-20
(PID.TID 0000.0001) %MON surfExpan_salt_mean          =   9.5289487187222E-20
(PID.TID 0000.0001) // =======================================================
(PID.TID 0000.0001) // End MONITOR dynamic field statistics
(PID.TID 0000.0001) // =======================================================
 cg2d: Sum(rhs),rhsMax =   2.34169464189993E-04  9.70034890024834E-03
 cg2d: Sum(rhs),rhsMax =   2.34201071172653E-04  9.70136028594675E-03
 cg2d: Sum(rhs),rhsMax =   2.34232499824327E-04  9.70237154893120E-03
 cg2d: Sum(rhs),rhsMax =   2.34263764227645E-04  9.70338268675264E-03
 cg2d: Sum(rhs),rhsMax =   2.34294863305300E-04  9.70439370688999E-03
 cg2d: Sum(rhs),rhsMax =   2.34325809014554E-04  9.70540460283306E-03
 cg2d: Sum(rhs),rhsMax =   2.34356567108089E-04  9.70641537939318E-03
 cg2d: Sum(rhs),rhsMax =   2.34387162574130E-04  9.70742603181211E-03
 cg2d: Sum(rhs),rhsMax =   2.34417579711680E-04  9.70843657020443E-03
 cg2d: Sum(rhs),rhsMax =   2.34447846911448E-04  9.70944698633683E-03
 cg2d: Sum(rhs),rhsMax =   2.34477933702513E-04  9.71045728351279E-03
 cg2d: Sum(rhs),rhsMax =   2.34507852037193E-04  9.71146745860738E-03
 cg2d: Sum(rhs),rhsMax =   2.34537628106331E-04  9.71247752293901E-03
 cg2d: Sum(rhs),rhsMax =   2.34567209711290E-04  9.71348746626788E-03
 cg2d: Sum(rhs),rhsMax =   2.34596647419330E-04  9.71449729421725E-03
 cg2d: Sum(rhs),rhsMax =   2.34625932730222E-04  9.71550700353103E-03
 cg2d: Sum(rhs),rhsMax =   2.34655051691068E-04  9.71651660147339E-03
 cg2d: Sum(rhs),rhsMax =   2.34684000482136E-04  9.71752608106638E-03
 cg2d: Sum(rhs),rhsMax =   2.34712817253381E-04  9.71853544908817E-03
 cg2d: Sum(rhs),rhsMax =   2.34741446033880E-04  9.71954469909894E-03
 cg2d: Sum(rhs),rhsMax =   2.34769934623466E-04  9.72055384149704E-03
 cg2d: Sum(rhs),rhsMax =   2.34798252282065E-04  9.72156286763549E-03
 cg2d: Sum(rhs),rhsMax =   2.34826439366112E-04  9.72257178331360E-03
 cg2d: Sum(rhs),rhsMax =   2.34854455614690E-04  9.72358058426251E-03
 cg2d: Sum(rhs),rhsMax =   2.34882331977255E-04  9.72458927869590E-03
 cg2d: Sum(rhs),rhsMax =   2.34910044588189E-04  9.72559785869182E-03
 cg2d: Sum(rhs),rhsMax =   2.34937613610521E-04  9.72660633197874E-03
 cg2d: Sum(rhs),rhsMax =   2.34965042981204E-04  9.72761469208319E-03
 cg2d: Sum(rhs),rhsMax =   2.34992305303281E-04  9.72862294764618E-03
 cg2d: Sum(rhs),rhsMax =   2.35019444363044E-04  9.72963109099788E-03
 cg2d: Sum(rhs),rhsMax =   2.35046457050879E-04  9.73063913107506E-03
 cg2d: Sum(rhs),rhsMax =   2.35073299345419E-04  9.73164705932421E-03
 cg2d: Sum(rhs),rhsMax =   2.35100007286521E-04  9.73265488593116E-03
 cg2d: Sum(rhs),rhsMax =   2.35126597855332E-04  9.73366260282708E-03
 cg2d: Sum(rhs),rhsMax =   2.35153067285993E-04  9.73467021561001E-03
 cg2d: Sum(rhs),rhsMax =   2.35179393148485E-04  9.73567772155009E-03
 cg2d: Sum(rhs),rhsMax =   2.35205584740421E-04  9.73668512546876E-03
 cg2d: Sum(rhs),rhsMax =   2.35231662317150E-04  9.73769242349898E-03
 cg2d: Sum(rhs),rhsMax =   2.35257608714162E-04  9.73869962038370E-03
 cg2d: Sum(rhs),rhsMax =   2.35283452448047E-04  9.73970671207153E-03
 cg2d: Sum(rhs),rhsMax =   2.35309163832955E-04  9.74071370409213E-03
 cg2d: Sum(rhs),rhsMax =   2.35334760710632E-04  9.74172059119767E-03
 cg2d: Sum(rhs),rhsMax =   2.35360247153220E-04  9.74272738115027E-03
 cg2d: Sum(rhs),rhsMax =   2.35385606536333E-04  9.74373406520507E-03
 cg2d: Sum(rhs),rhsMax =   2.35410870730165E-04  9.74474065570927E-03
 cg2d: Sum(rhs),rhsMax =   2.35435993709955E-04  9.74574714362078E-03
 cg2d: Sum(rhs),rhsMax =   2.35461041616045E-04  9.74675353364461E-03
 cg2d: Sum(rhs),rhsMax =   2.35486006510495E-04  9.74775982301506E-03
 cg2d: Sum(rhs),rhsMax =   2.35510867664350E-04  9.74876601615917E-03
 cg2d: Sum(rhs),rhsMax =   2.35535645062656E-04  9.74977211039183E-03
 cg2d: Sum(rhs),rhsMax =   2.35560324290901E-04  9.75077811038114E-03
 cg2d: Sum(rhs),rhsMax =   2.35584907983418E-04  9.75178401163957E-03
 cg2d: Sum(rhs),rhsMax =   2.35609391399945E-04  9.75278981961281E-03
 cg2d: Sum(rhs),rhsMax =   2.35633778616271E-04  9.75379552711849E-03
 cg2d: Sum(rhs),rhsMax =   2.35658097118929E-04  9.75480114823897E-03
 cg2d: Sum(rhs),rhsMax =   2.35682319482299E-04  9.75580667226999E-03
 cg2d: Sum(rhs),rhsMax =   2.35706456318468E-04  9.75681210267524E-03
 cg2d: Sum(rhs),rhsMax =   2.35730518126347E-04  9.75781743812624E-03
 cg2d: Sum(rhs),rhsMax =   2.35754519278835E-04  9.75882268352472E-03
 cg2d: Sum(rhs),rhsMax =   2.35778418595643E-04  9.75982783439925E-03
 cg2d: Sum(rhs),rhsMax =   2.35802253564043E-04  9.76083289624141E-03
 cg2d: Sum(rhs),rhsMax =   2.35825992913651E-04  9.76183786383026E-03
 cg2d: Sum(rhs),rhsMax =   2.35849683316735E-04  9.76284274635204E-03
 cg2d: Sum(rhs),rhsMax =   2.35873278053534E-04  9.76384753580213E-03
 cg2d: Sum(rhs),rhsMax =   2.35896817470911E-04  9.76485223786522E-03
 cg2d: Sum(rhs),rhsMax =   2.35920289784032E-04  9.76585684853716E-03
 cg2d: Sum(rhs),rhsMax =   2.35943686885924E-04  9.76686137464951E-03
 cg2d: Sum(rhs),rhsMax =   2.35967012430442E-04  9.76786581017701E-03
 cg2d: Sum(rhs),rhsMax =   2.35990295202921E-04  9.76887016193698E-03
 cg2d: Sum(rhs),rhsMax =   2.36013460714000E-04  9.76987442316093E-03
 cg2d: Sum(rhs),rhsMax =   2.36036603842985E-04  9.77087860368353E-03
 cg2d: Sum(rhs),rhsMax =   2.36059633016598E-04  9.77188269522599E-03
(PID.TID 0000.0001)      cg2d_init_res =   5.83884854771557E-03
(PID.TID 0000.0001)      cg2d_iters(min,last) =      -1     379
(PID.TID 0000.0001)      cg2d_last_res =   8.76138970505444E-08
(PID.TID 0000.0001) // =======================================================
(PID.TID 0000.0001) // Begin MONITOR dynamic field statistics
(PID.TID 0000.0001) // =======================================================
(PID.TID 0000.0001) %MON time_tsnumber                =                  7056
(PID.TID 0000.0001) %MON time_secondsf                =   8.4672000000000E+06
(PID.TID 0000.0001) %MON dynstat_eta_max              =   9.6844324071460E-02
(PID.TID 0000.0001) %MON dynstat_eta_min              =  -2.0433837638214E-01
(PID.TID 0000.0001) %MON dynstat_eta_mean             =  -1.0979512045292E-08
(PID.TID 0000.0001) %MON dynstat_eta_sd               =   7.8486143671807E-02
(PID.TID 0000.0001) %MON dynstat_eta_del2             =   4.5866085024308E-07
(PID.TID 0000.0001) %MON dynstat_uvel_max             =   7.2555053565892E-02
(PID.TID 0000.0001) %MON dynstat_uvel_min             =  -9.1263048476404E-02
(PID.TID 0000.0001) %MON dynstat_uvel_mean            =   2.3509527340419E-08
(PID.TID 0000.0001) %MON dynstat_uvel_sd              =   3.1849865719671E-02
(PID.TID 0000.0001) %MON dynstat_uvel_del2            =   7.5352555151166E-07
(PID.TID 0000.0001) %MON dynstat_vvel_max             =   7.8802193539146E-02
(PID.TID 0000.0001) %MON dynstat_vvel_min             =  -6.6701521476752E-02
(PID.TID 0000.0001) %MON dynstat_vvel_mean            =  -1.8453189497326E-08
(PID.TID 0000.0001) %MON dynstat_vvel_sd              =   2.9002725796251E-02
(PID.TID 0000.0001) %MON dynstat_vvel_del2            =   1.0324023966069E-06
(PID.TID 0000.0001) %MON dynstat_wvel_max             =   1.1468430426903E-08
(PID.TID 0000.0001) %MON dynstat_wvel_min             =  -2.1152602785733E-08
(PID.TID 0000.0001) %MON dynstat_wvel_mean            =  -3.4919128248007E-21
(PID.TID 0000.0001) %MON dynstat_wvel_sd              =   7.4928320673380E-09
(PID.TID 0000.0001) %MON dynstat_wvel_del2            =   6.4749299839122E-14
(PID.TID 0000.0001) %MON dynstat_theta_max            =   2.0000000000000E+01
(PID.TID 0000.0001) %MON dynstat_theta_min            =   2.0000000000000E+01
(PID.TID 0000.0001) %MON dynstat_theta_mean           =   1.9999999999999E+01
(PID.TID 0000.0001) %MON dynstat_theta_sd             =   1.1972645097557E-12
(PID.TID 0000.0001) %MON dynstat_theta_del2           =   0.0000000000000E+00
(PID.TID 0000.0001) %MON dynstat_salt_max             =   3.0000000000000E+01
(PID.TID 0000.0001) %MON dynstat_salt_min             =   3.0000000000000E+01
(PID.TID 0000.0001) %MON dynstat_salt_mean            =   2.9999999999998E+01
(PID.TID 0000.0001) %MON dynstat_salt_sd              =   2.1529444893531E-12
(PID.TID 0000.0001) %MON dynstat_salt_del2            =   0.0000000000000E+00
(PID.TID 0000.0001) %MON trAdv_CFL_u_max              =   2.1901737586635E-02
(PID.TID 0000.0001) %MON trAdv_CFL_v_max              =   1.8909494934750E-02
(PID.TID 0000.0001) %MON trAdv_CFL_w_max              =   2.8762031710638E-09
(PID.TID 0000.0001) %MON advcfl_uvel_max              =   2.1903131634337E-02
(PID.TID 0000.0001) %MON advcfl_vvel_max              =   1.8912526449395E-02
(PID.TID 0000.0001) %MON advcfl_wvel_max              =   1.0153249337152E-08
(PID.TID 0000.0001) %MON advcfl_W_hf_max              =   0.0000000000000E+00
(PID.TID 0000.0001) %MON pe_b_mean                    =   6.3026002000850E-06
(PID.TID 0000.0001) %MON ke_max                       =   4.1650121645972E-03
(PID.TID 0000.0001) %MON ke_mean                      =   9.2360970700066E-04
(PID.TID 0000.0001) %MON ke_vol                       =   7.2529629296391E+15
(PID.TID 0000.0001) %MON vort_r_min                   =  -3.0939358634476E-06
(PID.TID 0000.0001) %MON vort_r_max                   =   2.8498931636660E-06
(PID.TID 0000.0001) %MON vort_a_mean                  =   1.0615000000000E-04
(PID.TID 0000.0001) %MON vort_a_sd                    =   3.5963163222270E-06
(PID.TID 0000.0001) %MON vort_p_mean                  =   1.1210870169429E-04
(PID.TID 0000.0001) %MON vort_p_sd                    =   2.1059322391109E-05
(PID.TID 0000.0001) %MON surfExpan_theta_mean         =  -6.9875065700064E-20
(PID.TID 0000.0001) %MON surfExpan_salt_mean          =  -1.0474895075345E-19
(PID.TID 0000.0001) // =======================================================
(PID.TID 0000.0001) // End MONITOR dynamic field statistics
(PID.TID 0000.0001) // =======================================================
 cg2d: Sum(rhs),rhsMax =   2.36082626134998E-04  9.77288670354964E-03
 cg2d: Sum(rhs),rhsMax =   2.36105560377453E-04  9.77389062548401E-03
 cg2d: Sum(rhs),rhsMax =   2.36128412586191E-04  9.77489446577595E-03
 cg2d: Sum(rhs),rhsMax =   2.36151235058213E-04  9.77589822087407E-03
 cg2d: Sum(rhs),rhsMax =   2.36173993553681E-04  9.77690189513283E-03
 cg2d: Sum(rhs),rhsMax =   2.36196675124586E-04  9.77790548527761E-03
 cg2d: Sum(rhs),rhsMax =   2.36219308614229E-04  9.77890899568789E-03
 cg2d: Sum(rhs),rhsMax =   2.36241870952352E-04  9.77991242314813E-03
 cg2d: Sum(rhs),rhsMax =   2.36264385637912E-04  9.78091577179129E-03
 cg2d: Sum(rhs),rhsMax =   2.36286847255298E-04  9.78191903882411E-03
 cg2d: Sum(rhs),rhsMax =   2.36309238764708E-04  9.78292222754246E-03
 cg2d: Sum(rhs),rhsMax =   2.36331576902312E-04  9.78392533660907E-03
 cg2d: Sum(rhs),rhsMax =   2.36353846599603E-04  9.78492836680527E-03
 cg2d: Sum(rhs),rhsMax =   2.36376081975709E-04  9.78593132074475E-03
 cg2d: Sum(rhs),rhsMax =   2.36398203105679E-04  9.78693419557907E-03
 cg2d: Sum(rhs),rhsMax =   2.36420332393657E-04  9.78793699510157E-03
 cg2d: Sum(rhs),rhsMax =   2.36442372885214E-04  9.78893971746588E-03
 cg2d: Sum(rhs),rhsMax =   2.36464378632405E-04  9.78994236433597E-03
 cg2d: Sum(rhs),rhsMax =   2.36486323016982E-04  9.79094493486369E-03
 cg2d: Sum(rhs),rhsMax =   2.36508207885844E-04  9.79194743148700E-03
 cg2d: Sum(rhs),rhsMax =   2.36530036412727E-04  9.79294985155319E-03
 cg2d: Sum(rhs),rhsMax =   2.36551829446796E-04  9.79395220168904E-03
 cg2d: Sum(rhs),rhsMax =   2.36573556177865E-04  9.79495447711760E-03
 cg2d: Sum(rhs),rhsMax =   2.36595240968220E-04  9.79595668001190E-03
 cg2d: Sum(rhs),rhsMax =   2.36616875596776E-04  9.79695880916179E-03
 cg2d: Sum(rhs),rhsMax =   2.36638451199740E-04  9.79796086897947E-03
 cg2d: Sum(rhs),rhsMax =   2.36659979974267E-04  9.79896285635562E-03
 cg2d: Sum(rhs),rhsMax =   2.36681458596110E-04  9.79996477374471E-03
 cg2d: Sum(rhs),rhsMax =   2.36702888402262E-04  9.80096662017074E-03
 cg2d: Sum(rhs),rhsMax =   2.36724270343252E-04  9.80196839828297E-03
 cg2d: Sum(rhs),rhsMax =   2.36745588034711E-04  9.80297010585381E-03
 cg2d: Sum(rhs),rhsMax =   2.36766873965488E-04  9.80397174651705E-03
 cg2d: Sum(rhs),rhsMax =   2.36788073138728E-04  9.80497331768250E-03
 cg2d: Sum(rhs),rhsMax =   2.36809263583654E-04  9.80597482279417E-03
 cg2d: Sum(rhs),rhsMax =   2.36830405362969E-04  9.80697625987529E-03
 cg2d: Sum(rhs),rhsMax =   2.36851490325731E-04  9.80797763151038E-03
 cg2d: Sum(rhs),rhsMax =   2.36872517162796E-04  9.80897893530368E-03
 cg2d: Sum(rhs),rhsMax =   2.36893497202581E-04  9.80998017616790E-03
 cg2d: Sum(rhs),rhsMax =   2.36914435698532E-04  9.81098135093432E-03
 cg2d: Sum(rhs),rhsMax =   2.36935322834793E-04  9.81198246169777E-03
 cg2d: Sum(rhs),rhsMax =   2.36956172710950E-04  9.81298350835404E-03
 cg2d: Sum(rhs),rhsMax =   2.36976967265932E-04  9.81398449157336E-03
 cg2d: Sum(rhs),rhsMax =   2.36997710093346E-04  9.81498541165201E-03
 cg2d: Sum(rhs),rhsMax =   2.37018415623099E-04  9.81598626991556E-03
 cg2d: Sum(rhs),rhsMax =   2.37039038664278E-04  9.81698706460745E-03
 cg2d: Sum(rhs),rhsMax =   2.37059651384094E-04  9.81798780056001E-03
 cg2d: Sum(rhs),rhsMax =   2.37080195118368E-04  9.81898847437187E-03
 cg2d: Sum(rhs),rhsMax =   2.37100706252737E-04  9.81998908831976E-03
 cg2d: Sum(rhs),rhsMax =   2.37121154569352E-04  9.82098964247895E-03
 cg2d: Sum(rhs),rhsMax =   2.37141570858987E-04  9.82199013630487E-03
 cg2d: Sum(rhs),rhsMax =   2.37161945692607E-04  9.82299057259720E-03
 cg2d: Sum(rhs),rhsMax =   2.37182261880424E-04  9.82399094895670E-03
 cg2d: Sum(rhs),rhsMax =   2.37202532699016E-04  9.82499126983705E-03
 cg2d: Sum(rhs),rhsMax =   2.37222756980876E-04  9.82599153092742E-03
 cg2d: Sum(rhs),rhsMax =   2.37242923999818E-04  9.82699173825604E-03
 cg2d: Sum(rhs),rhsMax =   2.37263042544964E-04  9.82799188468482E-03
 cg2d: Sum(rhs),rhsMax =   2.37283120586039E-04  9.82899198088799E-03
 cg2d: Sum(rhs),rhsMax =   2.37303144708188E-04  9.82999201773806E-03
 cg2d: Sum(rhs),rhsMax =   2.37323124697169E-04  9.83099200353640E-03
 cg2d: Sum(rhs),rhsMax =   2.37343067701314E-04  9.83199193136177E-03
 cg2d: Sum(rhs),rhsMax =   2.37362947098856E-04  9.83299180812977E-03
 cg2d: Sum(rhs),rhsMax =   2.37382775756072E-04  9.83399162867253E-03
 cg2d: Sum(rhs),rhsMax =   2.37402572205404E-04  9.83499139954114E-03
 cg2d: Sum(rhs),rhsMax =   2.37422313148874E-04  9.83599111482143E-03
 cg2d: Sum(rhs),rhsMax =   2.37442017041256E-04  9.83699078125897E-03
 cg2d: Sum(rhs),rhsMax =   2.37461648533744E-04  9.83799039269840E-03
 cg2d: Sum(rhs),rhsMax =   2.37481234024983E-04  9.83898995719469E-03
 cg2d: Sum(rhs),rhsMax =   2.37500782532568E-04  9.83998946748907E-03
 cg2d: Sum(rhs),rhsMax =   2.37520294626706E-04  9.84098893185253E-03
 cg2d: Sum(rhs),rhsMax =   2.37539728839040E-04  9.84198834296835E-03
 cg2d: Sum(rhs),rhsMax =   2.37559130853214E-04  9.84298770967277E-03
 cg2d: Sum(rhs),rhsMax =   2.37578473878060E-04  9.84398702331442E-03
(PID.TID 0000.0001)      cg2d_init_res =   5.73119231866046E-03
(PID.TID 0000.0001)      cg2d_iters(min,last) =      -1     379
(PID.TID 0000.0001)      cg2d_last_res =   8.67332173459493E-08
(PID.TID 0000.0001) // =======================================================
(PID.TID 0000.0001) // Begin MONITOR dynamic field statistics
(PID.TID 0000.0001) // =======================================================
(PID.TID 0000.0001) %MON time_tsnumber                =                  7128
(PID.TID 0000.0001) %MON time_secondsf                =   8.5536000000000E+06
(PID.TID 0000.0001) %MON dynstat_eta_max              =   9.7181428145299E-02
(PID.TID 0000.0001) %MON dynstat_eta_min              =  -2.0582072222833E-01
(PID.TID 0000.0001) %MON dynstat_eta_mean             =  -1.1131497460780E-08
(PID.TID 0000.0001) %MON dynstat_eta_sd               =   7.8964118006665E-02
(PID.TID 0000.0001) %MON dynstat_eta_del2             =   4.6154673114419E-07
(PID.TID 0000.0001) %MON dynstat_uvel_max             =   7.2898097209499E-02
(PID.TID 0000.0001) %MON dynstat_uvel_min             =  -9.1677783729976E-02
(PID.TID 0000.0001) %MON dynstat_uvel_mean            =   5.7881301494368E-08
(PID.TID 0000.0001) %MON dynstat_uvel_sd              =   3.1999760680908E-02
(PID.TID 0000.0001) %MON dynstat_uvel_del2            =   7.5496319527660E-07
(PID.TID 0000.0001) %MON dynstat_vvel_max             =   7.9700118487781E-02
(PID.TID 0000.0001) %MON dynstat_vvel_min             =  -6.7207391773432E-02
(PID.TID 0000.0001) %MON dynstat_vvel_mean            =  -2.2232601234754E-08
(PID.TID 0000.0001) %MON dynstat_vvel_sd              =   2.9265785830496E-02
(PID.TID 0000.0001) %MON dynstat_vvel_del2            =   1.0351196611679E-06
(PID.TID 0000.0001) %MON dynstat_wvel_max             =   1.2600815682672E-08
(PID.TID 0000.0001) %MON dynstat_wvel_min             =  -2.0755428839475E-08
(PID.TID 0000.0001) %MON dynstat_wvel_mean            =  -5.5229085302855E-21
(PID.TID 0000.0001) %MON dynstat_wvel_sd              =   7.4576463573038E-09
(PID.TID 0000.0001) %MON dynstat_wvel_del2            =   6.4243256490702E-14
(PID.TID 0000.0001) %MON dynstat_theta_max            =   2.0000000000000E+01
(PID.TID 0000.0001) %MON dynstat_theta_min            =   2.0000000000000E+01
(PID.TID 0000.0001) %MON dynstat_theta_mean           =   1.9999999999999E+01
(PID.TID 0000.0001) %MON dynstat_theta_sd             =   1.1972645097557E-12
(PID.TID 0000.0001) %MON dynstat_theta_del2           =   0.0000000000000E+00
(PID.TID 0000.0001) %MON dynstat_salt_max             =   3.0000000000000E+01
(PID.TID 0000.0001) %MON dynstat_salt_min             =   3.0000000000000E+01
(PID.TID 0000.0001) %MON dynstat_salt_mean            =   2.9999999999998E+01
(PID.TID 0000.0001) %MON dynstat_salt_sd              =   2.1529444893531E-12
(PID.TID 0000.0001) %MON dynstat_salt_del2            =   0.0000000000000E+00
(PID.TID 0000.0001) %MON trAdv_CFL_u_max              =   2.2001296206936E-02
(PID.TID 0000.0001) %MON trAdv_CFL_v_max              =   1.9125075136088E-02
(PID.TID 0000.0001) %MON trAdv_CFL_w_max              =   3.1661716329929E-09
(PID.TID 0000.0001) %MON advcfl_uvel_max              =   2.2002668095194E-02
(PID.TID 0000.0001) %MON advcfl_vvel_max              =   1.9128028437067E-02
(PID.TID 0000.0001) %MON advcfl_wvel_max              =   9.9626058429480E-09
(PID.TID 0000.0001) %MON advcfl_W_hf_max              =   0.0000000000000E+00
(PID.TID 0000.0001) %MON pe_b_mean                    =   6.3795986072354E-06
(PID.TID 0000.0001) %MON ke_max                       =   4.2029712341122E-03
(PID.TID 0000.0001) %MON ke_mean                      =   9.3600309436256E-04
(PID.TID 0000.0001) %MON ke_vol                       =   7.2529629296391E+15
(PID.TID 0000.0001) %MON vort_r_min                   =  -3.1171208596553E-06
(PID.TID 0000.0001) %MON vort_r_max                   =   2.8481943584845E-06
(PID.TID 0000.0001) %MON vort_a_mean                  =   1.0615000000000E-04
(PID.TID 0000.0001) %MON vort_a_sd                    =   3.5966693493755E-06
(PID.TID 0000.0001) %MON vort_p_mean                  =   1.1210870169429E-04
(PID.TID 0000.0001) %MON vort_p_sd                    =   2.1059446202782E-05
(PID.TID 0000.0001) %MON surfExpan_theta_mean         =  -1.1053285269098E-19
(PID.TID 0000.0001) %MON surfExpan_salt_mean          =  -1.6577716762659E-19
(PID.TID 0000.0001) // =======================================================
(PID.TID 0000.0001) // End MONITOR dynamic field statistics
(PID.TID 0000.0001) // =======================================================
 cg2d: Sum(rhs),rhsMax =   2.37597754600782E-04  9.84498629426277E-03
 cg2d: Sum(rhs),rhsMax =   2.37616988613572E-04  9.84598551390825E-03
 cg2d: Sum(rhs),rhsMax =   2.37636192989102E-04  9.84698468944628E-03
 cg2d: Sum(rhs),rhsMax =   2.37655315467308E-04  9.84798381513061E-03
 cg2d: Sum(rhs),rhsMax =   2.37674412090763E-04  9.84898289877702E-03
 cg2d: Sum(rhs),rhsMax =   2.37693426036058E-04  9.84998193271497E-03
 cg2d: Sum(rhs),rhsMax =   2.37712428541505E-04  9.85098092410292E-03
 cg2d: Sum(rhs),rhsMax =   2.37731359314899E-04  9.85197986881831E-03
 cg2d: Sum(rhs),rhsMax =   2.37750267551949E-04  9.85297877248125E-03
 cg2d: Sum(rhs),rhsMax =   2.37774754846889E-04  9.85397762120335E-03
 cg2d: Sum(rhs),rhsMax =   2.37799179768709E-04  9.85497643680523E-03
 cg2d: Sum(rhs),rhsMax =   2.37823589519362E-04  9.85597520943723E-03
 cg2d: Sum(rhs),rhsMax =   2.37847912115459E-04  9.85697393932916E-03
 cg2d: Sum(rhs),rhsMax =   2.37872178492681E-04  9.85797262946052E-03
 cg2d: Sum(rhs),rhsMax =   2.37896405651510E-04  9.85897127673149E-03
 cg2d: Sum(rhs),rhsMax =   2.37920527620854E-04  9.85996988592797E-03
 cg2d: Sum(rhs),rhsMax =   2.37944598116815E-04  9.86096845111977E-03
 cg2d: Sum(rhs),rhsMax =   2.37968573244943E-04  9.86196698047586E-03
 cg2d: Sum(rhs),rhsMax =   2.37992509382797E-04  9.86296546719749E-03
 cg2d: Sum(rhs),rhsMax =   2.38016376282060E-04  9.86396391772175E-03
 cg2d: Sum(rhs),rhsMax =   2.38040198214693E-04  9.86496232703175E-03
 cg2d: Sum(rhs),rhsMax =   2.38063936870833E-04  9.86596070162858E-03
 cg2d: Sum(rhs),rhsMax =   2.38087597367291E-04  9.86695903533690E-03
 cg2d: Sum(rhs),rhsMax =   2.38111214262184E-04  9.86795733491164E-03
 cg2d: Sum(rhs),rhsMax =   2.38134745302857E-04  9.86895559815308E-03
 cg2d: Sum(rhs),rhsMax =   2.38158207913806E-04  9.86995382394554E-03
 cg2d: Sum(rhs),rhsMax =   2.38181602104891E-04  9.87095201250597E-03
 cg2d: Sum(rhs),rhsMax =   2.38204927921827E-04  9.87195016915212E-03
 cg2d: Sum(rhs),rhsMax =   2.38228167948908E-04  9.87294828841750E-03
 cg2d: Sum(rhs),rhsMax =   2.38251326270934E-04  9.87394637659664E-03
 cg2d: Sum(rhs),rhsMax =   2.38274398720610E-04  9.87494442839927E-03
 cg2d: Sum(rhs),rhsMax =   2.38297408942654E-04  9.87594244897649E-03
 cg2d: Sum(rhs),rhsMax =   2.38320317957900E-04  9.87694043407740E-03
 cg2d: Sum(rhs),rhsMax =   2.38343156789821E-04  9.87793838995391E-03
 cg2d: Sum(rhs),rhsMax =   2.38365890429096E-04  9.87893631116119E-03
 cg2d: Sum(rhs),rhsMax =   2.38388545879650E-04  9.87993420391666E-03
 cg2d: Sum(rhs),rhsMax =   2.38411126371097E-04  9.88093206102309E-03
 cg2d: Sum(rhs),rhsMax =   2.38433605916553E-04  9.88192989204997E-03
 cg2d: Sum(rhs),rhsMax =   2.38456009924235E-04  9.88292768941195E-03
 cg2d: Sum(rhs),rhsMax =   2.38478283274510E-04  9.88392546126622E-03
 cg2d: Sum(rhs),rhsMax =   2.38500468472720E-04  9.88492319943205E-03
 cg2d: Sum(rhs),rhsMax =   2.38522539993236E-04  9.88592091141398E-03
 cg2d: Sum(rhs),rhsMax =   2.38544498335927E-04  9.88691859430761E-03
 cg2d: Sum(rhs),rhsMax =   2.38566377290299E-04  9.88791624976995E-03
 cg2d: Sum(rhs),rhsMax =   2.38594838528306E-04  9.88891386991145E-03
 cg2d: Sum(rhs),rhsMax =   2.38623158739400E-04  9.88991147118581E-03
 cg2d: Sum(rhs),rhsMax =   2.38651340552986E-04  9.89090904670741E-03
 cg2d: Sum(rhs),rhsMax =   2.38679359182337E-04  9.89190659193551E-03
 cg2d: Sum(rhs),rhsMax =   2.38707245015672E-04  9.89290411637852E-03
 cg2d: Sum(rhs),rhsMax =   2.38734958042537E-04  9.89390161189924E-03
 cg2d: Sum(rhs),rhsMax =   2.38762530563475E-04  9.89489908617775E-03
 cg2d: Sum(rhs),rhsMax =   2.38789923451254E-04  9.89589653247282E-03
 cg2d: Sum(rhs),rhsMax =   2.38817128596618E-04  9.89689395867696E-03
 cg2d: Sum(rhs),rhsMax =   2.38844151332754E-04  9.89789135661246E-03
 cg2d: Sum(rhs),rhsMax =   2.38870992973438E-04  9.89888873708941E-03
 cg2d: Sum(rhs),rhsMax =   2.38897623624824E-04  9.89988609060134E-03
 cg2d: Sum(rhs),rhsMax =   2.38924065717039E-04  9.90088342592619E-03
 cg2d: Sum(rhs),rhsMax =   2.38950272643050E-04  9.90188073685010E-03
 cg2d: Sum(rhs),rhsMax =   2.38976255697229E-04  9.90287802712913E-03
 cg2d: Sum(rhs),rhsMax =   2.39002013898716E-04  9.90387529483617E-03
 cg2d: Sum(rhs),rhsMax =   2.39027551202680E-04  9.90487254228281E-03
 cg2d: Sum(rhs),rhsMax =   2.39052839534645E-04  9.90586977010284E-03
 cg2d: Sum(rhs),rhsMax =   2.39077844538534E-04  9.90686697639334E-03
 cg2d: Sum(rhs),rhsMax =   2.39102592635498E-04  9.90786416640125E-03
 cg2d: Sum(rhs),rhsMax =   2.39126994693039E-04  9.90886133690595E-03
 cg2d: Sum(rhs),rhsMax =   2.39151166158627E-04  9.90985848921201E-03
 cg2d: Sum(rhs),rhsMax =   2.39174975337264E-04  9.91085562300286E-03
 cg2d: Sum(rhs),rhsMax =   2.39198467671172E-04  9.91185273910507E-03
 cg2d: Sum(rhs),rhsMax =   2.39221590502398E-04  9.91284983754836E-03
 cg2d: Sum(rhs),rhsMax =   2.39244371770688E-04  9.91384692037491E-03
 cg2d: Sum(rhs),rhsMax =   2.39266729881156E-04  9.91484398645216E-03
 cg2d: Sum(rhs),rhsMax =   2.39294686444616E-04  9.91584103317752E-03
(PID.TID 0000.0001)      cg2d_init_res =   5.61758712844640E-03
(PID.TID 0000.0001)      cg2d_iters(min,last) =      -1     376
(PID.TID 0000.0001)      cg2d_last_res =   9.89503170788587E-08
(PID.TID 0000.0001) // =======================================================
(PID.TID 0000.0001) // Begin MONITOR dynamic field statistics
(PID.TID 0000.0001) // =======================================================
(PID.TID 0000.0001) %MON time_tsnumber                =                  7200
(PID.TID 0000.0001) %MON time_secondsf                =   8.6400000000000E+06
(PID.TID 0000.0001) %MON dynstat_eta_max              =   9.7432216715943E-02
(PID.TID 0000.0001) %MON dynstat_eta_min              =  -2.0726761527791E-01
(PID.TID 0000.0001) %MON dynstat_eta_mean             =  -1.1294113660473E-08
(PID.TID 0000.0001) %MON dynstat_eta_sd               =   7.9436230126914E-02
(PID.TID 0000.0001) %MON dynstat_eta_del2             =   4.6434412557137E-07
(PID.TID 0000.0001) %MON dynstat_uvel_max             =   7.3207664070812E-02
(PID.TID 0000.0001) %MON dynstat_uvel_min             =  -9.2086515766454E-02
(PID.TID 0000.0001) %MON dynstat_uvel_mean            =   9.1418981544474E-08
(PID.TID 0000.0001) %MON dynstat_uvel_sd              =   3.2147470069389E-02
(PID.TID 0000.0001) %MON dynstat_uvel_del2            =   7.5660854052570E-07
(PID.TID 0000.0001) %MON dynstat_vvel_max             =   8.0572476324042E-02
(PID.TID 0000.0001) %MON dynstat_vvel_min             =  -6.7709651515099E-02
(PID.TID 0000.0001) %MON dynstat_vvel_mean            =  -3.1966819591978E-08
(PID.TID 0000.0001) %MON dynstat_vvel_sd              =   2.9523938621035E-02
(PID.TID 0000.0001) %MON dynstat_vvel_del2            =   1.0371170370086E-06
(PID.TID 0000.0001) %MON dynstat_wvel_max             =   1.3755233674310E-08
(PID.TID 0000.0001) %MON dynstat_wvel_min             =  -2.0267765638418E-08
(PID.TID 0000.0001) %MON dynstat_wvel_mean            =  -9.3587680365790E-21
(PID.TID 0000.0001) %MON dynstat_wvel_sd              =   7.4342657579177E-09
(PID.TID 0000.0001) %MON dynstat_wvel_del2            =   6.3765379221882E-14
(PID.TID 0000.0001) %MON dynstat_theta_max            =   2.0000000000000E+01
(PID.TID 0000.0001) %MON dynstat_theta_min            =   2.0000000000000E+01
(PID.TID 0000.0001) %MON dynstat_theta_mean           =   1.9999999999999E+01
(PID.TID 0000.0001) %MON dynstat_theta_sd             =   1.1972645097557E-12
(PID.TID 0000.0001) %MON dynstat_theta_del2           =   0.0000000000000E+00
(PID.TID 0000.0001) %MON dynstat_salt_max             =   3.0000000000000E+01
(PID.TID 0000.0001) %MON dynstat_salt_min             =   3.0000000000000E+01
(PID.TID 0000.0001) %MON dynstat_salt_mean            =   2.9999999999998E+01
(PID.TID 0000.0001) %MON dynstat_salt_sd              =   2.1529444893531E-12
(PID.TID 0000.0001) %MON dynstat_salt_del2            =   0.0000000000000E+00
(PID.TID 0000.0001) %MON trAdv_CFL_u_max              =   2.2099409881599E-02
(PID.TID 0000.0001) %MON trAdv_CFL_v_max              =   1.9334532648889E-02
(PID.TID 0000.0001) %MON trAdv_CFL_w_max              =   3.4617915375802E-09
(PID.TID 0000.0001) %MON advcfl_uvel_max              =   2.2100763783949E-02
(PID.TID 0000.0001) %MON advcfl_vvel_max              =   1.9337394317770E-02
(PID.TID 0000.0001) %MON advcfl_wvel_max              =   9.7285275064409E-09
(PID.TID 0000.0001) %MON advcfl_W_hf_max              =   0.0000000000000E+00
(PID.TID 0000.0001) %MON pe_b_mean                    =   6.4561115769292E-06
(PID.TID 0000.0001) %MON ke_max                       =   4.2406249631742E-03
(PID.TID 0000.0001) %MON ke_mean                      =   9.4827355044381E-04
(PID.TID 0000.0001) %MON ke_vol                       =   7.2529629296391E+15
(PID.TID 0000.0001) %MON vort_r_min                   =  -3.1402092737264E-06
(PID.TID 0000.0001) %MON vort_r_max                   =   2.8428954142467E-06
(PID.TID 0000.0001) %MON vort_a_mean                  =   1.0615000000000E-04
(PID.TID 0000.0001) %MON vort_a_sd                    =   3.5970121402529E-06
(PID.TID 0000.0001) %MON vort_p_mean                  =   1.1210870169429E-04
(PID.TID 0000.0001) %MON vort_p_sd                    =   2.1059561685405E-05
(PID.TID 0000.0001) %MON surfExpan_theta_mean         =  -1.8714069240796E-19
(PID.TID 0000.0001) %MON surfExpan_salt_mean          =  -2.8068702979137E-19
(PID.TID 0000.0001) // =======================================================
(PID.TID 0000.0001) // End MONITOR dynamic field statistics
(PID.TID 0000.0001) // =======================================================
 cg2d: Sum(rhs),rhsMax =   2.39322092464226E-04  9.91683806923711E-03
 cg2d: Sum(rhs),rhsMax =   2.39348945829490E-04  9.91783508813045E-03
 cg2d: Sum(rhs),rhsMax =   2.39375256220250E-04  9.91883209232462E-03
 cg2d: Sum(rhs),rhsMax =   2.39400895346121E-04  9.91982908289800E-03
 cg2d: Sum(rhs),rhsMax =   2.39425932435979E-04  9.92082605944229E-03
 cg2d: Sum(rhs),rhsMax =   2.39450280322259E-04  9.92182302255597E-03
 cg2d: Sum(rhs),rhsMax =   2.39473941040557E-04  9.92281997278571E-03
 cg2d: Sum(rhs),rhsMax =   2.39503365552280E-04  9.92381692790748E-03
 cg2d: Sum(rhs),rhsMax =   2.39538238855910E-04  9.92481385572045E-03
 cg2d: Sum(rhs),rhsMax =   2.39571864295537E-04  9.92581076977384E-03
 cg2d: Sum(rhs),rhsMax =   2.39711233360690E-04  9.92680764768399E-03
 cg2d: Sum(rhs),rhsMax =   2.39873866698178E-04  9.92780455488484E-03
 cg2d: Sum(rhs),rhsMax =   2.40027228801010E-04  9.92880143509375E-03
 cg2d: Sum(rhs),rhsMax =   2.40171407893234E-04  9.92979830240194E-03
 cg2d: Sum(rhs),rhsMax =   2.40310660904500E-04  9.93079515653084E-03
 cg2d: Sum(rhs),rhsMax =   2.40440612480608E-04  9.93179200433066E-03
 cg2d: Sum(rhs),rhsMax =   2.40561414468345E-04  9.93278884675544E-03
 cg2d: Sum(rhs),rhsMax =   2.40673255886153E-04  9.93378567576968E-03
 cg2d: Sum(rhs),rhsMax =   2.40780375657076E-04  9.93478250082372E-03
 cg2d: Sum(rhs),rhsMax =   2.40878724759346E-04  9.93577931575810E-03
 cg2d: Sum(rhs),rhsMax =   2.40968617045664E-04  9.93677612488936E-03
 cg2d: Sum(rhs),rhsMax =   2.41054199274731E-04  9.93777292235187E-03
 cg2d: Sum(rhs),rhsMax =   2.41139573945006E-04  9.93876971370655E-03
 cg2d: Sum(rhs),rhsMax =   2.41220590395363E-04  9.93976650096676E-03
 cg2d: Sum(rhs),rhsMax =   2.41293684345228E-04  9.94076328492045E-03
 cg2d: Sum(rhs),rhsMax =   2.41362864468599E-04  9.94176006114597E-03
 cg2d: Sum(rhs),rhsMax =   2.41424960446449E-04  9.94275683168809E-03
 cg2d: Sum(rhs),rhsMax =   2.41480479839311E-04  9.94375359741701E-03
 cg2d: Sum(rhs),rhsMax =   2.41529932700895E-04  9.94475035708622E-03
 cg2d: Sum(rhs),rhsMax =   2.41577233722905E-04  9.94574711786410E-03
 cg2d: Sum(rhs),rhsMax =   2.41619521230732E-04  9.94674387169367E-03
 cg2d: Sum(rhs),rhsMax =   2.41657394465218E-04  9.94774062047841E-03
 cg2d: Sum(rhs),rhsMax =   2.41691456289708E-04  9.94873736703403E-03
 cg2d: Sum(rhs),rhsMax =   2.41722300828209E-04  9.94973411181228E-03
 cg2d: Sum(rhs),rhsMax =   2.41750601631653E-04  9.95073085442204E-03
 cg2d: Sum(rhs),rhsMax =   2.41776967990609E-04  9.95172759425118E-03
 cg2d: Sum(rhs),rhsMax =   2.41802067871957E-04  9.95272433061784E-03
 cg2d: Sum(rhs),rhsMax =   2.41826501795059E-04  9.95372106782236E-03
 cg2d: Sum(rhs),rhsMax =   2.41850959164467E-04  9.95471780597772E-03
 cg2d: Sum(rhs),rhsMax =   2.41876074048620E-04  9.95571454000940E-03
 cg2d: Sum(rhs),rhsMax =   2.41902514954628E-04  9.95671127514754E-03
 cg2d: Sum(rhs),rhsMax =   2.41930904043793E-04  9.95770801018497E-03
 cg2d: Sum(rhs),rhsMax =   2.41961893063762E-04  9.95870474674979E-03
 cg2d: Sum(rhs),rhsMax =   2.41996118603743E-04  9.95970148350626E-03
 cg2d: Sum(rhs),rhsMax =   2.42034193460840E-04  9.96069822225564E-03
 cg2d: Sum(rhs),rhsMax =   2.42076761309083E-04  9.96169496184807E-03
 cg2d: Sum(rhs),rhsMax =   2.42124391165695E-04  9.96269170418539E-03
 cg2d: Sum(rhs),rhsMax =   2.42177745275903E-04  9.96368844792824E-03
 cg2d: Sum(rhs),rhsMax =   2.42233816418646E-04  9.96468519210132E-03
 cg2d: Sum(rhs),rhsMax =   2.42296643056729E-04  9.96568194161073E-03
 cg2d: Sum(rhs),rhsMax =   2.42366720866893E-04  9.96667869560613E-03
 cg2d: Sum(rhs),rhsMax =   2.42444588524720E-04  9.96767544915777E-03
 cg2d: Sum(rhs),rhsMax =   2.42526936159006E-04  9.96867221385875E-03
 cg2d: Sum(rhs),rhsMax =   2.42617930099852E-04  9.96966897758849E-03
 cg2d: Sum(rhs),rhsMax =   2.42713827422502E-04  9.97066574597416E-03
 cg2d: Sum(rhs),rhsMax =   2.42806307932750E-04  9.97166253028157E-03
 cg2d: Sum(rhs),rhsMax =   2.42907652081306E-04  9.97265931017910E-03
 cg2d: Sum(rhs),rhsMax =   2.43018273693302E-04  9.97365609692716E-03
 cg2d: Sum(rhs),rhsMax =   2.43138437956533E-04  9.97465289036336E-03
 cg2d: Sum(rhs),rhsMax =   2.43264104496715E-04  9.97564968861174E-03
 cg2d: Sum(rhs),rhsMax =   2.43399597653059E-04  9.97664649332734E-03
 cg2d: Sum(rhs),rhsMax =   2.43545188332483E-04  9.97764330654929E-03
 cg2d: Sum(rhs),rhsMax =   2.43701101085696E-04  9.97864012491061E-03
 cg2d: Sum(rhs),rhsMax =   2.43862699261346E-04  9.97963695907873E-03
 cg2d: Sum(rhs),rhsMax =   2.44034665560288E-04  9.98063379553089E-03
 cg2d: Sum(rhs),rhsMax =   2.44217135334538E-04  9.98163063961106E-03
 cg2d: Sum(rhs),rhsMax =   2.44251196925173E-04  9.98262749762421E-03
 cg2d: Sum(rhs),rhsMax =   2.44286521166436E-04  9.98362436173467E-03
 cg2d: Sum(rhs),rhsMax =   2.44316288440051E-04  9.98462122938561E-03
 cg2d: Sum(rhs),rhsMax =   2.44347020992901E-04  9.98561810910341E-03
 cg2d: Sum(rhs),rhsMax =   2.44371779891832E-04  9.98661497831607E-03
 cg2d: Sum(rhs),rhsMax =   2.44397228933818E-04  9.98761187986285E-03
(PID.TID 0000.0001)      cg2d_init_res =   5.49938834775900E-03
(PID.TID 0000.0001)      cg2d_iters(min,last) =      -1     376
(PID.TID 0000.0001)      cg2d_last_res =   9.42217462848061E-08
(PID.TID 0000.0001) // =======================================================
(PID.TID 0000.0001) // Begin MONITOR dynamic field statistics
(PID.TID 0000.0001) // =======================================================
(PID.TID 0000.0001) %MON time_tsnumber                =                  7272
(PID.TID 0000.0001) %MON time_secondsf                =   8.7264000000000E+06
(PID.TID 0000.0001) %MON dynstat_eta_max              =   9.7616550204951E-02
(PID.TID 0000.0001) %MON dynstat_eta_min              =  -2.0869230791963E-01
(PID.TID 0000.0001) %MON dynstat_eta_mean             =  -1.1618335437908E-08
(PID.TID 0000.0001) %MON dynstat_eta_sd               =   7.9903587021225E-02
(PID.TID 0000.0001) %MON dynstat_eta_del2             =   4.6706169157611E-07
(PID.TID 0000.0001) %MON dynstat_uvel_max             =   7.3490635293949E-02
(PID.TID 0000.0001) %MON dynstat_uvel_min             =  -9.2490427952634E-02
(PID.TID 0000.0001) %MON dynstat_uvel_mean            =   1.2256651778055E-07
(PID.TID 0000.0001) %MON dynstat_uvel_sd              =   3.2295694886787E-02
(PID.TID 0000.0001) %MON dynstat_uvel_del2            =   7.5851513435916E-07
(PID.TID 0000.0001) %MON dynstat_vvel_max             =   8.1416042714605E-02
(PID.TID 0000.0001) %MON dynstat_vvel_min             =  -6.8209583495194E-02
(PID.TID 0000.0001) %MON dynstat_vvel_mean            =  -4.7289411634135E-08
(PID.TID 0000.0001) %MON dynstat_vvel_sd              =   2.9774815824499E-02
(PID.TID 0000.0001) %MON dynstat_vvel_del2            =   1.0384473463506E-06
(PID.TID 0000.0001) %MON dynstat_wvel_max             =   1.4911422897130E-08
(PID.TID 0000.0001) %MON dynstat_wvel_min             =  -1.9709177403711E-08
(PID.TID 0000.0001) %MON dynstat_wvel_mean            =  -7.9120162716939E-22
(PID.TID 0000.0001) %MON dynstat_wvel_sd              =   7.4229165525099E-09
(PID.TID 0000.0001) %MON dynstat_wvel_del2            =   6.2973646335684E-14
(PID.TID 0000.0001) %MON dynstat_theta_max            =   2.0000000000000E+01
(PID.TID 0000.0001) %MON dynstat_theta_min            =   2.0000000000000E+01
(PID.TID 0000.0001) %MON dynstat_theta_mean           =   1.9999999999999E+01
(PID.TID 0000.0001) %MON dynstat_theta_sd             =   1.1972645097557E-12
(PID.TID 0000.0001) %MON dynstat_theta_del2           =   0.0000000000000E+00
(PID.TID 0000.0001) %MON dynstat_salt_max             =   3.0000000000000E+01
(PID.TID 0000.0001) %MON dynstat_salt_min             =   3.0000000000000E+01
(PID.TID 0000.0001) %MON dynstat_salt_mean            =   2.9999999999998E+01
(PID.TID 0000.0001) %MON dynstat_salt_sd              =   2.1529444893531E-12
(PID.TID 0000.0001) %MON dynstat_salt_del2            =   0.0000000000000E+00
(PID.TID 0000.0001) %MON trAdv_CFL_u_max              =   2.2196363097004E-02
(PID.TID 0000.0001) %MON trAdv_CFL_v_max              =   1.9537081116737E-02
(PID.TID 0000.0001) %MON trAdv_CFL_w_max              =   3.7612848902287E-09
(PID.TID 0000.0001) %MON advcfl_uvel_max              =   2.2197702708632E-02
(PID.TID 0000.0001) %MON advcfl_vvel_max              =   1.9539850251505E-02
(PID.TID 0000.0001) %MON advcfl_wvel_max              =   9.4604051537812E-09
(PID.TID 0000.0001) %MON advcfl_W_hf_max              =   0.0000000000000E+00
(PID.TID 0000.0001) %MON pe_b_mean                    =   6.5323031157407E-06
(PID.TID 0000.0001) %MON ke_max                       =   4.2780063846050E-03
(PID.TID 0000.0001) %MON ke_mean                      =   9.6043295984650E-04
(PID.TID 0000.0001) %MON ke_vol                       =   7.2529629296391E+15
(PID.TID 0000.0001) %MON vort_r_min                   =  -3.1632667287238E-06
(PID.TID 0000.0001) %MON vort_r_max                   =   2.8342218010770E-06
(PID.TID 0000.0001) %MON vort_a_mean                  =   1.0615000000000E-04
(PID.TID 0000.0001) %MON vort_a_sd                    =   3.5973465921684E-06
(PID.TID 0000.0001) %MON vort_p_mean                  =   1.1210870169429E-04
(PID.TID 0000.0001) %MON vort_p_sd                    =   2.1059666596163E-05
(PID.TID 0000.0001) %MON surfExpan_theta_mean         =  -1.5850457087157E-20
(PID.TID 0000.0001) %MON surfExpan_salt_mean          =  -2.3770021577993E-20
(PID.TID 0000.0001) // =======================================================
(PID.TID 0000.0001) // End MONITOR dynamic field statistics
(PID.TID 0000.0001) // =======================================================
 cg2d: Sum(rhs),rhsMax =   2.44423383364797E-04  9.98860878909484E-03
 cg2d: Sum(rhs),rhsMax =   2.44450171163171E-04  9.98960571155051E-03
 cg2d: Sum(rhs),rhsMax =   2.44477546130443E-04  9.99060264641729E-03
 cg2d: Sum(rhs),rhsMax =   2.44505536366301E-04  9.99159958891287E-03
 cg2d: Sum(rhs),rhsMax =   2.44534085482992E-04  9.99259654336626E-03
 cg2d: Sum(rhs),rhsMax =   2.44563180371178E-04  9.99359351191111E-03
 cg2d: Sum(rhs),rhsMax =   2.44592790753631E-04  9.99459049063212E-03
 cg2d: Sum(rhs),rhsMax =   2.44622881697300E-04  9.99558748475934E-03
 cg2d: Sum(rhs),rhsMax =   2.44647122768150E-04  9.99658449530928E-03
 cg2d: Sum(rhs),rhsMax =   2.44671718849928E-04  9.99758151357008E-03
 cg2d: Sum(rhs),rhsMax =   2.44696693728801E-04  9.99857854678456E-03
 cg2d: Sum(rhs),rhsMax =   2.44721996625528E-04  9.99957559045125E-03
 cg2d: Sum(rhs),rhsMax =   2.44747661925056E-04  1.00005726528741E-02
 cg2d: Sum(rhs),rhsMax =   2.44773627479990E-04  1.00015697256048E-02
 cg2d: Sum(rhs),rhsMax =   2.44799915624976E-04  1.00025668170284E-02
 cg2d: Sum(rhs),rhsMax =   2.44826484708836E-04  1.00035639191816E-02
 cg2d: Sum(rhs),rhsMax =   2.44853348914945E-04  1.00045610416274E-02
 cg2d: Sum(rhs),rhsMax =   2.44880501319307E-04  1.00055581766975E-02
 cg2d: Sum(rhs),rhsMax =   2.44907910756703E-04  1.00065553289663E-02
 cg2d: Sum(rhs),rhsMax =   2.44935604644857E-04  1.00075524953619E-02
 cg2d: Sum(rhs),rhsMax =   2.44963570326356E-04  1.00085496799042E-02
 cg2d: Sum(rhs),rhsMax =   2.44991779079067E-04  1.00095468791781E-02
 cg2d: Sum(rhs),rhsMax =   2.45020236210015E-04  1.00105440970195E-02
 cg2d: Sum(rhs),rhsMax =   2.45048914205862E-04  1.00115413302621E-02
 cg2d: Sum(rhs),rhsMax =   2.45077844079901E-04  1.00125385826208E-02
 cg2d: Sum(rhs),rhsMax =   2.45106966892296E-04  1.00135358511312E-02
 cg2d: Sum(rhs),rhsMax =   2.45136334792192E-04  1.00145331391359E-02
 cg2d: Sum(rhs),rhsMax =   2.45165926798779E-04  1.00155304443171E-02
 cg2d: Sum(rhs),rhsMax =   2.45195717878397E-04  1.00165277686701E-02
 cg2d: Sum(rhs),rhsMax =   2.45225723400121E-04  1.00175251121584E-02
 cg2d: Sum(rhs),rhsMax =   2.45255925999168E-04  1.00185224725744E-02
 cg2d: Sum(rhs),rhsMax =   2.45286324943646E-04  1.00195198564318E-02
 cg2d: Sum(rhs),rhsMax =   2.45316910311464E-04  1.00205172601173E-02
 cg2d: Sum(rhs),rhsMax =   2.45347701962726E-04  1.00215146806061E-02
 cg2d: Sum(rhs),rhsMax =   2.45378677567484E-04  1.00225121208577E-02
 cg2d: Sum(rhs),rhsMax =   2.45409864837036E-04  1.00235095829439E-02
 cg2d: Sum(rhs),rhsMax =   2.45441236607209E-04  1.00245070643058E-02
 cg2d: Sum(rhs),rhsMax =   2.45472780244206E-04  1.00255045688175E-02
 cg2d: Sum(rhs),rhsMax =   2.45504494032434E-04  1.00265020928973E-02
 cg2d: Sum(rhs),rhsMax =   2.45536405307221E-04  1.00274996393780E-02
 cg2d: Sum(rhs),rhsMax =   2.45568502730375E-04  1.00284972061133E-02
 cg2d: Sum(rhs),rhsMax =   2.45600771517321E-04  1.00294947965223E-02
 cg2d: Sum(rhs),rhsMax =   2.45633216045980E-04  1.00304924071192E-02
 cg2d: Sum(rhs),rhsMax =   2.45665844148342E-04  1.00314900416795E-02
 cg2d: Sum(rhs),rhsMax =   2.45698627766142E-04  1.00324876981362E-02
 cg2d: Sum(rhs),rhsMax =   2.45731611194911E-04  1.00334853778640E-02
 cg2d: Sum(rhs),rhsMax =   2.45764764602318E-04  1.00344830795696E-02
 cg2d: Sum(rhs),rhsMax =   2.45798047269662E-04  1.00354808055297E-02
 cg2d: Sum(rhs),rhsMax =   2.45831525367422E-04  1.00364785520635E-02
 cg2d: Sum(rhs),rhsMax =   2.45865168660993E-04  1.00374763267516E-02
 cg2d: Sum(rhs),rhsMax =   2.45898998134583E-04  1.00384741226354E-02
 cg2d: Sum(rhs),rhsMax =   2.45932991592732E-04  1.00394719448963E-02
 cg2d: Sum(rhs),rhsMax =   2.45967147085783E-04  1.00404697896340E-02
 cg2d: Sum(rhs),rhsMax =   2.46001449241431E-04  1.00414676612513E-02
 cg2d: Sum(rhs),rhsMax =   2.46035950361342E-04  1.00424655554617E-02
 cg2d: Sum(rhs),rhsMax =   2.46070613687173E-04  1.00434634773280E-02
 cg2d: Sum(rhs),rhsMax =   2.46105430595670E-04  1.00444614224062E-02
 cg2d: Sum(rhs),rhsMax =   2.46140416129671E-04  1.00454593951283E-02
 cg2d: Sum(rhs),rhsMax =   2.46175569173876E-04  1.00464573918275E-02
 cg2d: Sum(rhs),rhsMax =   2.46210881359440E-04  1.00474554154013E-02
 cg2d: Sum(rhs),rhsMax =   2.46246360939386E-04  1.00484534632381E-02
 cg2d: Sum(rhs),rhsMax =   2.46282043337794E-04  1.00494515398729E-02
 cg2d: Sum(rhs),rhsMax =   2.46310483305295E-04  1.00504496508032E-02
 cg2d: Sum(rhs),rhsMax =   2.46339104195427E-04  1.00514477806693E-02
 cg2d: Sum(rhs),rhsMax =   2.46367899305169E-04  1.00524459343801E-02
 cg2d: Sum(rhs),rhsMax =   2.46396829777609E-04  1.00534441180469E-02
 cg2d: Sum(rhs),rhsMax =   2.46425932148136E-04  1.00544423287287E-02
 cg2d: Sum(rhs),rhsMax =   2.46455167226524E-04  1.00554405664562E-02
 cg2d: Sum(rhs),rhsMax =   2.46484582324204E-04  1.00564388320538E-02
 cg2d: Sum(rhs),rhsMax =   2.46514142691254E-04  1.00574371265488E-02
 cg2d: Sum(rhs),rhsMax =   2.46543853664507E-04  1.00584354486744E-02
 cg2d: Sum(rhs),rhsMax =   2.46573731816064E-04  1.00594337998631E-02
(PID.TID 0000.0001)      cg2d_init_res =   5.37922060166607E-03
(PID.TID 0000.0001)      cg2d_iters(min,last) =      -1     378
(PID.TID 0000.0001)      cg2d_last_res =   9.49359410047327E-08
(PID.TID 0000.0001) // =======================================================
(PID.TID 0000.0001) // Begin MONITOR dynamic field statistics
(PID.TID 0000.0001) // =======================================================
(PID.TID 0000.0001) %MON time_tsnumber                =                  7344
(PID.TID 0000.0001) %MON time_secondsf                =   8.8128000000000E+06
(PID.TID 0000.0001) %MON dynstat_eta_max              =   9.7730733894813E-02
(PID.TID 0000.0001) %MON dynstat_eta_min              =  -2.1008902942910E-01
(PID.TID 0000.0001) %MON dynstat_eta_mean             =  -1.1806263754791E-08
(PID.TID 0000.0001) %MON dynstat_eta_sd               =   8.0367388831716E-02
(PID.TID 0000.0001) %MON dynstat_eta_del2             =   4.6970962409273E-07
(PID.TID 0000.0001) %MON dynstat_uvel_max             =   7.3757680647251E-02
(PID.TID 0000.0001) %MON dynstat_uvel_min             =  -9.2890600432629E-02
(PID.TID 0000.0001) %MON dynstat_uvel_mean            =   1.4986066050847E-07
(PID.TID 0000.0001) %MON dynstat_uvel_sd              =   3.2447056689995E-02
(PID.TID 0000.0001) %MON dynstat_uvel_del2            =   7.6073135196665E-07
(PID.TID 0000.0001) %MON dynstat_vvel_max             =   8.2229790659285E-02
(PID.TID 0000.0001) %MON dynstat_vvel_min             =  -6.8708350285771E-02
(PID.TID 0000.0001) %MON dynstat_vvel_mean            =  -6.7582052473171E-08
(PID.TID 0000.0001) %MON dynstat_vvel_sd              =   3.0016305344511E-02
(PID.TID 0000.0001) %MON dynstat_vvel_del2            =   1.0391839689947E-06
(PID.TID 0000.0001) %MON dynstat_wvel_max             =   1.6056640264578E-08
(PID.TID 0000.0001) %MON dynstat_wvel_min             =  -1.9097596195061E-08
(PID.TID 0000.0001) %MON dynstat_wvel_mean            =   7.6329521691341E-22
(PID.TID 0000.0001) %MON dynstat_wvel_sd              =   7.4221435239517E-09
(PID.TID 0000.0001) %MON dynstat_wvel_del2            =   6.2149464957856E-14
(PID.TID 0000.0001) %MON dynstat_theta_max            =   2.0000000000000E+01
(PID.TID 0000.0001) %MON dynstat_theta_min            =   2.0000000000000E+01
(PID.TID 0000.0001) %MON dynstat_theta_mean           =   1.9999999999999E+01
(PID.TID 0000.0001) %MON dynstat_theta_sd             =   1.1972645097557E-12
(PID.TID 0000.0001) %MON dynstat_theta_del2           =   0.0000000000000E+00
(PID.TID 0000.0001) %MON dynstat_salt_max             =   3.0000000000000E+01
(PID.TID 0000.0001) %MON dynstat_salt_min             =   3.0000000000000E+01
(PID.TID 0000.0001) %MON dynstat_salt_mean            =   2.9999999999998E+01
(PID.TID 0000.0001) %MON dynstat_salt_sd              =   2.1529444893531E-12
(PID.TID 0000.0001) %MON dynstat_salt_del2            =   0.0000000000000E+00
(PID.TID 0000.0001) %MON trAdv_CFL_u_max              =   2.2292411700397E-02
(PID.TID 0000.0001) %MON trAdv_CFL_v_max              =   1.9732493345260E-02
(PID.TID 0000.0001) %MON trAdv_CFL_w_max              =   4.0569458853649E-09
(PID.TID 0000.0001) %MON advcfl_uvel_max              =   2.2293744103831E-02
(PID.TID 0000.0001) %MON advcfl_vvel_max              =   1.9735149758228E-02
(PID.TID 0000.0001) %MON advcfl_wvel_max              =   9.1668461736292E-09
(PID.TID 0000.0001) %MON advcfl_W_hf_max              =   0.0000000000000E+00
(PID.TID 0000.0001) %MON pe_b_mean                    =   6.6083569471586E-06
(PID.TID 0000.0001) %MON ke_max                       =   4.3152032993668E-03
(PID.TID 0000.0001) %MON ke_mean                      =   9.7249766086282E-04
(PID.TID 0000.0001) %MON ke_vol                       =   7.2529629296391E+15
(PID.TID 0000.0001) %MON vort_r_min                   =  -3.1863493569463E-06
(PID.TID 0000.0001) %MON vort_r_max                   =   2.8223655562863E-06
(PID.TID 0000.0001) %MON vort_a_mean                  =   1.0615000000000E-04
(PID.TID 0000.0001) %MON vort_a_sd                    =   3.5976748432417E-06
(PID.TID 0000.0001) %MON vort_p_mean                  =   1.1210870169429E-04
(PID.TID 0000.0001) %MON vort_p_sd                    =   2.1059759132245E-05
(PID.TID 0000.0001) %MON surfExpan_theta_mean         =   1.5229726690189E-20
(PID.TID 0000.0001) %MON surfExpan_salt_mean          =   2.2865874850397E-20
(PID.TID 0000.0001) // =======================================================
(PID.TID 0000.0001) // End MONITOR dynamic field statistics
(PID.TID 0000.0001) // =======================================================
 cg2d: Sum(rhs),rhsMax =   2.46603750639686E-04  1.00604321790236E-02
 cg2d: Sum(rhs),rhsMax =   2.46633942705781E-04  1.00614305874422E-02
 cg2d: Sum(rhs),rhsMax =   2.46664286596209E-04  1.00624290245159E-02
 cg2d: Sum(rhs),rhsMax =   2.46694787068227E-04  1.00634274910940E-02
 cg2d: Sum(rhs),rhsMax =   2.46725411880054E-04  1.00644259869967E-02
 cg2d: Sum(rhs),rhsMax =   2.46756224003452E-04  1.00654245122521E-02
 cg2d: Sum(rhs),rhsMax =   2.46787179723517E-04  1.00664230678018E-02
 cg2d: Sum(rhs),rhsMax =   2.46818316534666E-04  1.00674216527411E-02
 cg2d: Sum(rhs),rhsMax =   2.46849604503748E-04  1.00684202680585E-02
 cg2d: Sum(rhs),rhsMax =   2.46881059400949E-04  1.00694189132997E-02
 cg2d: Sum(rhs),rhsMax =   2.46912662259660E-04  1.00704175885231E-02
 cg2d: Sum(rhs),rhsMax =   2.46944431801899E-04  1.00714162955980E-02
 cg2d: Sum(rhs),rhsMax =   2.46976350464502E-04  1.00724150329945E-02
 cg2d: Sum(rhs),rhsMax =   2.47008439818836E-04  1.00734138018820E-02
 cg2d: Sum(rhs),rhsMax =   2.47040673681647E-04  1.00744125995864E-02
 cg2d: Sum(rhs),rhsMax =   2.47073069237600E-04  1.00754114307919E-02
 cg2d: Sum(rhs),rhsMax =   2.47105646950851E-04  1.00764102920858E-02
 cg2d: Sum(rhs),rhsMax =   2.47138383909905E-04  1.00774091866668E-02
 cg2d: Sum(rhs),rhsMax =   2.47171280430242E-04  1.00784081110024E-02
 cg2d: Sum(rhs),rhsMax =   2.47204366418907E-04  1.00794070690779E-02
 cg2d: Sum(rhs),rhsMax =   2.47237590126129E-04  1.00804060586728E-02
 cg2d: Sum(rhs),rhsMax =   2.47270980396464E-04  1.00814050808426E-02
 cg2d: Sum(rhs),rhsMax =   2.47304559487479E-04  1.00824041332781E-02
 cg2d: Sum(rhs),rhsMax =   2.47338311826949E-04  1.00834032202486E-02
 cg2d: Sum(rhs),rhsMax =   2.47372207184541E-04  1.00844023387846E-02
 cg2d: Sum(rhs),rhsMax =   2.47406293994525E-04  1.00854014912841E-02
 cg2d: Sum(rhs),rhsMax =   2.47440554055980E-04  1.00864006764252E-02
 cg2d: Sum(rhs),rhsMax =   2.47474957723108E-04  1.00873998949035E-02
 cg2d: Sum(rhs),rhsMax =   2.47509547016467E-04  1.00883991448423E-02
 cg2d: Sum(rhs),rhsMax =   2.47544270536521E-04  1.00893984312109E-02
 cg2d: Sum(rhs),rhsMax =   2.47579191490392E-04  1.00903977483924E-02
 cg2d: Sum(rhs),rhsMax =   2.47614277419697E-04  1.00913971011202E-02
 cg2d: Sum(rhs),rhsMax =   2.47649544211546E-04  1.00923964851882E-02
 cg2d: Sum(rhs),rhsMax =   2.47684983596667E-04  1.00933959064944E-02
 cg2d: Sum(rhs),rhsMax =   2.47720588272876E-04  1.00943953602601E-02
 cg2d: Sum(rhs),rhsMax =   2.47756368133883E-04  1.00953948481507E-02
 cg2d: Sum(rhs),rhsMax =   2.47792301271269E-04  1.00963943701076E-02
 cg2d: Sum(rhs),rhsMax =   2.47828444967273E-04  1.00973939272261E-02
 cg2d: Sum(rhs),rhsMax =   2.47864750804586E-04  1.00983935189354E-02
 cg2d: Sum(rhs),rhsMax =   2.47901247277379E-04  1.00993931439670E-02
 cg2d: Sum(rhs),rhsMax =   2.47937895162642E-04  1.01003928037708E-02
 cg2d: Sum(rhs),rhsMax =   2.47974717084558E-04  1.01013925003430E-02
 cg2d: Sum(rhs),rhsMax =   2.48011749795964E-04  1.01023922304564E-02
 cg2d: Sum(rhs),rhsMax =   2.48048942935839E-04  1.01033919971532E-02
 cg2d: Sum(rhs),rhsMax =   2.48086313952714E-04  1.01043917974401E-02
 cg2d: Sum(rhs),rhsMax =   2.48123850136310E-04  1.01053916353308E-02
 cg2d: Sum(rhs),rhsMax =   2.48161572555007E-04  1.01063915073899E-02
 cg2d: Sum(rhs),rhsMax =   2.48199460319107E-04  1.01073914155119E-02
 cg2d: Sum(rhs),rhsMax =   2.48237546482634E-04  1.01083913566444E-02
 cg2d: Sum(rhs),rhsMax =   2.48275792788254E-04  1.01093913375730E-02
 cg2d: Sum(rhs),rhsMax =   2.48314216334235E-04  1.01103913529775E-02
 cg2d: Sum(rhs),rhsMax =   2.48352831171502E-04  1.01113914044707E-02
 cg2d: Sum(rhs),rhsMax =   2.48391636531028E-04  1.01123914890941E-02
 cg2d: Sum(rhs),rhsMax =   2.48430610670928E-04  1.01133916135869E-02
 cg2d: Sum(rhs),rhsMax =   2.48469769988876E-04  1.01143917723656E-02
 cg2d: Sum(rhs),rhsMax =   2.48509138922199E-04  1.01153919685977E-02
 cg2d: Sum(rhs),rhsMax =   2.48548647965887E-04  1.01163921998613E-02
 cg2d: Sum(rhs),rhsMax =   2.48588362693718E-04  1.01173924701339E-02
 cg2d: Sum(rhs),rhsMax =   2.48628264859193E-04  1.01183927754234E-02
 cg2d: Sum(rhs),rhsMax =   2.48668344293716E-04  1.01193931181648E-02
 cg2d: Sum(rhs),rhsMax =   2.48708614132013E-04  1.01203934964750E-02
 cg2d: Sum(rhs),rhsMax =   2.48749061006935E-04  1.01213939133213E-02
 cg2d: Sum(rhs),rhsMax =   2.48789687015288E-04  1.01223943662051E-02
 cg2d: Sum(rhs),rhsMax =   2.48830510493320E-04  1.01233948557484E-02
 cg2d: Sum(rhs),rhsMax =   2.48871516363184E-04  1.01243953814434E-02
 cg2d: Sum(rhs),rhsMax =   2.48912705636527E-04  1.01253959466836E-02
 cg2d: Sum(rhs),rhsMax =   2.48954084157418E-04  1.01263965469726E-02
 cg2d: Sum(rhs),rhsMax =   2.48995657099014E-04  1.01273971869473E-02
 cg2d: Sum(rhs),rhsMax =   2.49037411281201E-04  1.01283978620506E-02
 cg2d: Sum(rhs),rhsMax =   2.49079321118909E-04  1.01293985773914E-02
 cg2d: Sum(rhs),rhsMax =   2.49121442001647E-04  1.01303993272653E-02
 cg2d: Sum(rhs),rhsMax =   2.49163747299505E-04  1.01314001165734E-02
(PID.TID 0000.0001)      cg2d_init_res =   5.26060048565113E-03
(PID.TID 0000.0001)      cg2d_iters(min,last) =      -1     378
(PID.TID 0000.0001)      cg2d_last_res =   9.74072608664747E-08
(PID.TID 0000.0001) // =======================================================
(PID.TID 0000.0001) // Begin MONITOR dynamic field statistics
(PID.TID 0000.0001) // =======================================================
(PID.TID 0000.0001) %MON time_tsnumber                =                  7416
(PID.TID 0000.0001) %MON time_secondsf                =   8.8992000000000E+06
(PID.TID 0000.0001) %MON dynstat_eta_max              =   9.7764751455231E-02
(PID.TID 0000.0001) %MON dynstat_eta_min              =  -2.1145861188126E-01
(PID.TID 0000.0001) %MON dynstat_eta_mean             =  -1.2016207247366E-08
(PID.TID 0000.0001) %MON dynstat_eta_sd               =   8.0828878525485E-02
(PID.TID 0000.0001) %MON dynstat_eta_del2             =   4.7229933810270E-07
(PID.TID 0000.0001) %MON dynstat_uvel_max             =   7.4023329104245E-02
(PID.TID 0000.0001) %MON dynstat_uvel_min             =  -9.3288929848395E-02
(PID.TID 0000.0001) %MON dynstat_uvel_mean            =   1.7199972467452E-07
(PID.TID 0000.0001) %MON dynstat_uvel_sd              =   3.2603988890652E-02
(PID.TID 0000.0001) %MON dynstat_uvel_del2            =   7.6330021221814E-07
(PID.TID 0000.0001) %MON dynstat_vvel_max             =   8.3008998889683E-02
(PID.TID 0000.0001) %MON dynstat_vvel_min             =  -6.9206930597208E-02
(PID.TID 0000.0001) %MON dynstat_vvel_mean            =  -9.1999868735451E-08
(PID.TID 0000.0001) %MON dynstat_vvel_sd              =   3.0246631851452E-02
(PID.TID 0000.0001) %MON dynstat_vvel_del2            =   1.0394207467202E-06
(PID.TID 0000.0001) %MON dynstat_wvel_max             =   1.7164480350912E-08
(PID.TID 0000.0001) %MON dynstat_wvel_min             =  -1.8449113247916E-08
(PID.TID 0000.0001) %MON dynstat_wvel_mean            =  -9.7458568478298E-21
(PID.TID 0000.0001) %MON dynstat_wvel_sd              =   7.4289424660093E-09
(PID.TID 0000.0001) %MON dynstat_wvel_del2            =   6.1258341443241E-14
(PID.TID 0000.0001) %MON dynstat_theta_max            =   2.0000000000000E+01
(PID.TID 0000.0001) %MON dynstat_theta_min            =   2.0000000000000E+01
(PID.TID 0000.0001) %MON dynstat_theta_mean           =   1.9999999999999E+01
(PID.TID 0000.0001) %MON dynstat_theta_sd             =   1.1972645097557E-12
(PID.TID 0000.0001) %MON dynstat_theta_del2           =   0.0000000000000E+00
(PID.TID 0000.0001) %MON dynstat_salt_max             =   3.0000000000000E+01
(PID.TID 0000.0001) %MON dynstat_salt_min             =   3.0000000000000E+01
(PID.TID 0000.0001) %MON dynstat_salt_mean            =   2.9999999999998E+01
(PID.TID 0000.0001) %MON dynstat_salt_sd              =   2.1529444893531E-12
(PID.TID 0000.0001) %MON dynstat_salt_del2            =   0.0000000000000E+00
(PID.TID 0000.0001) %MON trAdv_CFL_u_max              =   2.2388019609612E-02
(PID.TID 0000.0001) %MON trAdv_CFL_v_max              =   1.9919620168790E-02
(PID.TID 0000.0001) %MON trAdv_CFL_w_max              =   4.3450744876146E-09
(PID.TID 0000.0001) %MON advcfl_uvel_max              =   2.2389343163615E-02
(PID.TID 0000.0001) %MON advcfl_vvel_max              =   1.9922159733524E-02
(PID.TID 0000.0001) %MON advcfl_wvel_max              =   8.8555743589997E-09
(PID.TID 0000.0001) %MON advcfl_W_hf_max              =   0.0000000000000E+00
(PID.TID 0000.0001) %MON pe_b_mean                    =   6.6844685318853E-06
(PID.TID 0000.0001) %MON ke_max                       =   4.3522854366024E-03
(PID.TID 0000.0001) %MON ke_mean                      =   9.8448782232036E-04
(PID.TID 0000.0001) %MON ke_vol                       =   7.2529629296391E+15
(PID.TID 0000.0001) %MON vort_r_min                   =  -3.2095006056567E-06
(PID.TID 0000.0001) %MON vort_r_max                   =   2.8082813614394E-06
(PID.TID 0000.0001) %MON vort_a_mean                  =   1.0615000000000E-04
(PID.TID 0000.0001) %MON vort_a_sd                    =   3.5979992013717E-06
(PID.TID 0000.0001) %MON vort_p_mean                  =   1.1210870169429E-04
(PID.TID 0000.0001) %MON vort_p_sd                    =   2.1059838030500E-05
(PID.TID 0000.0001) %MON surfExpan_theta_mean         =  -1.9494385497908E-19
(PID.TID 0000.0001) %MON surfExpan_salt_mean          =  -2.9246850606404E-19
(PID.TID 0000.0001) // =======================================================
(PID.TID 0000.0001) // End MONITOR dynamic field statistics
(PID.TID 0000.0001) // =======================================================
 cg2d: Sum(rhs),rhsMax =   2.49206224586624E-04  1.01324009429213E-02
 cg2d: Sum(rhs),rhsMax =   2.49248938109767E-04  1.01334018073972E-02
 cg2d: Sum(rhs),rhsMax =   2.49291795301875E-04  1.01344027081911E-02
 cg2d: Sum(rhs),rhsMax =   2.49334858787019E-04  1.01354036473740E-02
 cg2d: Sum(rhs),rhsMax =   2.49378099716738E-04  1.01364046239876E-02
 cg2d: Sum(rhs),rhsMax =   2.49421562054724E-04  1.01374056394652E-02
 cg2d: Sum(rhs),rhsMax =   2.49465172149211E-04  1.01384066932373E-02
 cg2d: Sum(rhs),rhsMax =   2.49508987385443E-04  1.01394077838373E-02
 cg2d: Sum(rhs),rhsMax =   2.49552986554323E-04  1.01404089122062E-02
 cg2d: Sum(rhs),rhsMax =   2.49597182585310E-04  1.01414100803097E-02
 cg2d: Sum(rhs),rhsMax =   2.49641555915472E-04  1.01424112850799E-02
 cg2d: Sum(rhs),rhsMax =   2.49686124088969E-04  1.01434125293803E-02
 cg2d: Sum(rhs),rhsMax =   2.49730858638894E-04  1.01444138120635E-02
 cg2d: Sum(rhs),rhsMax =   2.49775797077302E-04  1.01454151302160E-02
 cg2d: Sum(rhs),rhsMax =   2.49820939329508E-04  1.01464164882420E-02
 cg2d: Sum(rhs),rhsMax =   2.49866276387135E-04  1.01474178849838E-02
 cg2d: Sum(rhs),rhsMax =   2.49911790430889E-04  1.01484193185786E-02
 cg2d: Sum(rhs),rhsMax =   2.49957490495960E-04  1.01494207915131E-02
 cg2d: Sum(rhs),rhsMax =   2.50003410782294E-04  1.01504223029457E-02
 cg2d: Sum(rhs),rhsMax =   2.50049505367387E-04  1.01514238539491E-02
 cg2d: Sum(rhs),rhsMax =   2.50095786645858E-04  1.01524254412694E-02
 cg2d: Sum(rhs),rhsMax =   2.50142251990030E-04  1.01534270669855E-02
 cg2d: Sum(rhs),rhsMax =   2.50188895620507E-04  1.01544287332417E-02
 cg2d: Sum(rhs),rhsMax =   2.50235733537057E-04  1.01554304359521E-02
 cg2d: Sum(rhs),rhsMax =   2.50282789857772E-04  1.01564321780864E-02
 cg2d: Sum(rhs),rhsMax =   2.50330030929762E-04  1.01574339571766E-02
 cg2d: Sum(rhs),rhsMax =   2.50377451329635E-04  1.01584357755463E-02
 cg2d: Sum(rhs),rhsMax =   2.50425080233083E-04  1.01594376328449E-02
 cg2d: Sum(rhs),rhsMax =   2.50472899818423E-04  1.01604395284653E-02
 cg2d: Sum(rhs),rhsMax =   2.50520895755347E-04  1.01614414630655E-02
 cg2d: Sum(rhs),rhsMax =   2.50569082855380E-04  1.01624434349397E-02
 cg2d: Sum(rhs),rhsMax =   2.50617462312593E-04  1.01634454465849E-02
 cg2d: Sum(rhs),rhsMax =   2.50666053144227E-04  1.01644474953680E-02
 cg2d: Sum(rhs),rhsMax =   2.50714792485457E-04  1.01654495843914E-02
 cg2d: Sum(rhs),rhsMax =   2.50763757234568E-04  1.01664517102916E-02
 cg2d: Sum(rhs),rhsMax =   2.50812881711533E-04  1.01674538760080E-02
 cg2d: Sum(rhs),rhsMax =   2.50862232447743E-04  1.01684560792187E-02
 cg2d: Sum(rhs),rhsMax =   2.50911771274176E-04  1.01694583213376E-02
 cg2d: Sum(rhs),rhsMax =   2.50961503667919E-04  1.01704606014916E-02
 cg2d: Sum(rhs),rhsMax =   2.51011395837681E-04  1.01714629201800E-02
 cg2d: Sum(rhs),rhsMax =   2.51061503950285E-04  1.01724652772868E-02
 cg2d: Sum(rhs),rhsMax =   2.51111836109531E-04  1.01734676727758E-02
 cg2d: Sum(rhs),rhsMax =   2.51162307000117E-04  1.01744701059625E-02
 cg2d: Sum(rhs),rhsMax =   2.51212961413044E-04  1.01754725786824E-02
 cg2d: Sum(rhs),rhsMax =   2.51263822492446E-04  1.01764750889765E-02
 cg2d: Sum(rhs),rhsMax =   2.51314884394182E-04  1.01774776365584E-02
 cg2d: Sum(rhs),rhsMax =   2.51366137706825E-04  1.01784802231171E-02
 cg2d: Sum(rhs),rhsMax =   2.51417575939368E-04  1.01794828483939E-02
 cg2d: Sum(rhs),rhsMax =   2.51469207783987E-04  1.01804855112246E-02
 cg2d: Sum(rhs),rhsMax =   2.51521020784977E-04  1.01814882129267E-02
 cg2d: Sum(rhs),rhsMax =   2.51573041334148E-04  1.01824909520081E-02
 cg2d: Sum(rhs),rhsMax =   2.51625207398411E-04  1.01834937319670E-02
 cg2d: Sum(rhs),rhsMax =   2.51677611714183E-04  1.01844965444856E-02
 cg2d: Sum(rhs),rhsMax =   2.51730180793580E-04  1.01854993990326E-02
 cg2d: Sum(rhs),rhsMax =   2.51782957302481E-04  1.01865022885122E-02
 cg2d: Sum(rhs),rhsMax =   2.51835920375880E-04  1.01875052183974E-02
 cg2d: Sum(rhs),rhsMax =   2.51889100085629E-04  1.01885081835225E-02
 cg2d: Sum(rhs),rhsMax =   2.51942449623345E-04  1.01895111894802E-02
 cg2d: Sum(rhs),rhsMax =   2.51995995206877E-04  1.01905142306567E-02
 cg2d: Sum(rhs),rhsMax =   2.52049716497614E-04  1.01915173119392E-02
 cg2d: Sum(rhs),rhsMax =   2.52103613508456E-04  1.01925204311211E-02
 cg2d: Sum(rhs),rhsMax =   2.52157721421783E-04  1.01935235845995E-02
 cg2d: Sum(rhs),rhsMax =   2.52211993001421E-04  1.01945267767917E-02
 cg2d: Sum(rhs),rhsMax =   2.52266483292029E-04  1.01955300068840E-02
 cg2d: Sum(rhs),rhsMax =   2.52321176217877E-04  1.01965332737481E-02
 cg2d: Sum(rhs),rhsMax =   2.52376033464580E-04  1.01975365783442E-02
 cg2d: Sum(rhs),rhsMax =   2.52431072892285E-04  1.01985399191681E-02
 cg2d: Sum(rhs),rhsMax =   2.52486302355378E-04  1.01995432995771E-02
 cg2d: Sum(rhs),rhsMax =   2.52541741827518E-04  1.02005467143377E-02
 cg2d: Sum(rhs),rhsMax =   2.52597353683668E-04  1.02015501675921E-02
 cg2d: Sum(rhs),rhsMax =   2.52653175760967E-04  1.02025536565195E-02
 cg2d: Sum(rhs),rhsMax =   2.52709155190125E-04  1.02035571840013E-02
(PID.TID 0000.0001)      cg2d_init_res =   5.14740215118656E-03
(PID.TID 0000.0001)      cg2d_iters(min,last) =      -1     378
(PID.TID 0000.0001)      cg2d_last_res =   9.94252893248191E-08
(PID.TID 0000.0001) // =======================================================
(PID.TID 0000.0001) // Begin MONITOR dynamic field statistics
(PID.TID 0000.0001) // =======================================================
(PID.TID 0000.0001) %MON time_tsnumber                =                  7488
(PID.TID 0000.0001) %MON time_secondsf                =   8.9856000000000E+06
(PID.TID 0000.0001) %MON dynstat_eta_max              =   9.7725346921190E-02
(PID.TID 0000.0001) %MON dynstat_eta_min              =  -2.1280593042188E-01
(PID.TID 0000.0001) %MON dynstat_eta_mean             =  -1.2274617018885E-08
(PID.TID 0000.0001) %MON dynstat_eta_sd               =   8.1289284503878E-02
(PID.TID 0000.0001) %MON dynstat_eta_del2             =   4.7484314883945E-07
(PID.TID 0000.0001) %MON dynstat_uvel_max             =   7.4301432818363E-02
(PID.TID 0000.0001) %MON dynstat_uvel_min             =  -9.3684837727687E-02
(PID.TID 0000.0001) %MON dynstat_uvel_mean            =   1.8790375657654E-07
(PID.TID 0000.0001) %MON dynstat_uvel_sd              =   3.2768636651339E-02
(PID.TID 0000.0001) %MON dynstat_uvel_del2            =   7.6625779570777E-07
(PID.TID 0000.0001) %MON dynstat_vvel_max             =   8.3759812539986E-02
(PID.TID 0000.0001) %MON dynstat_vvel_min             =  -6.9868045647886E-02
(PID.TID 0000.0001) %MON dynstat_vvel_mean            =  -1.1950602750341E-07
(PID.TID 0000.0001) %MON dynstat_vvel_sd              =   3.0464420022959E-02
(PID.TID 0000.0001) %MON dynstat_vvel_del2            =   1.0392714859591E-06
(PID.TID 0000.0001) %MON dynstat_wvel_max             =   1.8220027745701E-08
(PID.TID 0000.0001) %MON dynstat_wvel_min             =  -1.7784653627314E-08
(PID.TID 0000.0001) %MON dynstat_wvel_mean            =   1.8110240057845E-21
(PID.TID 0000.0001) %MON dynstat_wvel_sd              =   7.4391858539608E-09
(PID.TID 0000.0001) %MON dynstat_wvel_del2            =   6.0336530906578E-14
(PID.TID 0000.0001) %MON dynstat_theta_max            =   2.0000000000000E+01
(PID.TID 0000.0001) %MON dynstat_theta_min            =   2.0000000000000E+01
(PID.TID 0000.0001) %MON dynstat_theta_mean           =   1.9999999999999E+01
(PID.TID 0000.0001) %MON dynstat_theta_sd             =   1.1972645097557E-12
(PID.TID 0000.0001) %MON dynstat_theta_del2           =   0.0000000000000E+00
(PID.TID 0000.0001) %MON dynstat_salt_max             =   3.0000000000000E+01
(PID.TID 0000.0001) %MON dynstat_salt_min             =   3.0000000000000E+01
(PID.TID 0000.0001) %MON dynstat_salt_mean            =   2.9999999999998E+01
(PID.TID 0000.0001) %MON dynstat_salt_sd              =   2.1529444893531E-12
(PID.TID 0000.0001) %MON dynstat_salt_del2            =   0.0000000000000E+00
(PID.TID 0000.0001) %MON trAdv_CFL_u_max              =   2.2483044963284E-02
(PID.TID 0000.0001) %MON trAdv_CFL_v_max              =   2.0099877444515E-02
(PID.TID 0000.0001) %MON trAdv_CFL_w_max              =   4.6187159007897E-09
(PID.TID 0000.0001) %MON advcfl_uvel_max              =   2.2484361054645E-02
(PID.TID 0000.0001) %MON advcfl_vvel_max              =   2.0102355009597E-02
(PID.TID 0000.0001) %MON advcfl_wvel_max              =   8.7456133179367E-09
(PID.TID 0000.0001) %MON advcfl_W_hf_max              =   0.0000000000000E+00
(PID.TID 0000.0001) %MON pe_b_mean                    =   6.7608356506000E-06
(PID.TID 0000.0001) %MON ke_max                       =   4.3893143950635E-03
(PID.TID 0000.0001) %MON ke_mean                      =   9.9642664084892E-04
(PID.TID 0000.0001) %MON ke_vol                       =   7.2529629296391E+15
(PID.TID 0000.0001) %MON vort_r_min                   =  -3.2327486614746E-06
(PID.TID 0000.0001) %MON vort_r_max                   =   2.7920148808032E-06
(PID.TID 0000.0001) %MON vort_a_mean                  =   1.0615000000000E-04
(PID.TID 0000.0001) %MON vort_a_sd                    =   3.5983220703435E-06
(PID.TID 0000.0001) %MON vort_p_mean                  =   1.1210870169429E-04
(PID.TID 0000.0001) %MON vort_p_sd                    =   2.1059902642885E-05
(PID.TID 0000.0001) %MON surfExpan_theta_mean         =   3.6167376699972E-20
(PID.TID 0000.0001) %MON surfExpan_salt_mean          =   5.4243287544701E-20
(PID.TID 0000.0001) // =======================================================
(PID.TID 0000.0001) // End MONITOR dynamic field statistics
(PID.TID 0000.0001) // =======================================================
 cg2d: Sum(rhs),rhsMax =   2.52765320683595E-04  1.02045607466574E-02
 cg2d: Sum(rhs),rhsMax =   2.52821665871697E-04  1.02055643473040E-02
 cg2d: Sum(rhs),rhsMax =   2.52878213252939E-04  1.02065679825017E-02
 cg2d: Sum(rhs),rhsMax =   2.52934943520442E-04  1.02075716558407E-02
 cg2d: Sum(rhs),rhsMax =   2.52991886042485E-04  1.02085753638059E-02
 cg2d: Sum(rhs),rhsMax =   2.53048992339435E-04  1.02095791101186E-02
 cg2d: Sum(rhs),rhsMax =   2.53106272721720E-04  1.02105828908836E-02
 cg2d: Sum(rhs),rhsMax =   2.53163757228014E-04  1.02115867095141E-02
 cg2d: Sum(rhs),rhsMax =   2.53221424281575E-04  1.02125905625549E-02
 cg2d: Sum(rhs),rhsMax =   2.53279240882916E-04  1.02135944550120E-02
 cg2d: Sum(rhs),rhsMax =   2.53337275233601E-04  1.02145983783962E-02
 cg2d: Sum(rhs),rhsMax =   2.53395496344703E-04  1.02156023401848E-02
 cg2d: Sum(rhs),rhsMax =   2.53453881493306E-04  1.02166063359848E-02
 cg2d: Sum(rhs),rhsMax =   2.53512479866469E-04  1.02176103681746E-02
 cg2d: Sum(rhs),rhsMax =   2.53571276470809E-04  1.02186144359639E-02
 cg2d: Sum(rhs),rhsMax =   2.53630229102455E-04  1.02196185384227E-02
 cg2d: Sum(rhs),rhsMax =   2.53689360268445E-04  1.02206226775149E-02
 cg2d: Sum(rhs),rhsMax =   2.53748704323082E-04  1.02216268493274E-02
 cg2d: Sum(rhs),rhsMax =   2.53808205325480E-04  1.02226310586367E-02
 cg2d: Sum(rhs),rhsMax =   2.53867909768188E-04  1.02236352993451E-02
 cg2d: Sum(rhs),rhsMax =   2.53927800878495E-04  1.02246395766981E-02
 cg2d: Sum(rhs),rhsMax =   2.53987865769372E-04  1.02256438888906E-02
 cg2d: Sum(rhs),rhsMax =   2.54048112699922E-04  1.02266482355273E-02
 cg2d: Sum(rhs),rhsMax =   2.54108526850084E-04  1.02276526157576E-02
 cg2d: Sum(rhs),rhsMax =   2.54169141571897E-04  1.02286570294516E-02
 cg2d: Sum(rhs),rhsMax =   2.54229873988352E-04  1.02296614798212E-02
 cg2d: Sum(rhs),rhsMax =   2.54290849646153E-04  1.02306659612903E-02
 cg2d: Sum(rhs),rhsMax =   2.54351989437060E-04  1.02316704772332E-02
 cg2d: Sum(rhs),rhsMax =   2.54405339129671E-04  1.02326750392829E-02
 cg2d: Sum(rhs),rhsMax =   2.54466840858031E-04  1.02336796120129E-02
 cg2d: Sum(rhs),rhsMax =   2.54528500842075E-04  1.02346842273735E-02
 cg2d: Sum(rhs),rhsMax =   2.54582347961994E-04  1.02356888889523E-02
 cg2d: Sum(rhs),rhsMax =   2.54636359311038E-04  1.02366935704190E-02
 cg2d: Sum(rhs),rhsMax =   2.54690535057040E-04  1.02376982878862E-02
 cg2d: Sum(rhs),rhsMax =   2.54744833932605E-04  1.02387030340665E-02
 cg2d: Sum(rhs),rhsMax =   2.54799353576179E-04  1.02397078171927E-02
 cg2d: Sum(rhs),rhsMax =   2.54854016289902E-04  1.02407126282138E-02
 cg2d: Sum(rhs),rhsMax =   2.54908852308664E-04  1.02417174763618E-02
 cg2d: Sum(rhs),rhsMax =   2.54963812469984E-04  1.02427223528627E-02
 cg2d: Sum(rhs),rhsMax =   2.55018953141338E-04  1.02437272640840E-02
 cg2d: Sum(rhs),rhsMax =   2.55074273350024E-04  1.02447322055589E-02
 cg2d: Sum(rhs),rhsMax =   2.55129767261919E-04  1.02457371788848E-02
 cg2d: Sum(rhs),rhsMax =   2.55185423585698E-04  1.02467421830430E-02
 cg2d: Sum(rhs),rhsMax =   2.55241248759999E-04  1.02477472190758E-02
 cg2d: Sum(rhs),rhsMax =   2.55297220140966E-04  1.02487522858301E-02
 cg2d: Sum(rhs),rhsMax =   2.55353349096979E-04  1.02497573838689E-02
 cg2d: Sum(rhs),rhsMax =   2.55409667780183E-04  1.02507625129787E-02
 cg2d: Sum(rhs),rhsMax =   2.55466144232882E-04  1.02517676719563E-02
 cg2d: Sum(rhs),rhsMax =   2.55522762269407E-04  1.02527728628508E-02
 cg2d: Sum(rhs),rhsMax =   2.55579515008377E-04  1.02537780813864E-02
 cg2d: Sum(rhs),rhsMax =   2.55636434024955E-04  1.02547833331074E-02
 cg2d: Sum(rhs),rhsMax =   2.55693552378243E-04  1.02557886141619E-02
 cg2d: Sum(rhs),rhsMax =   2.55750800319759E-04  1.02567939244424E-02
 cg2d: Sum(rhs),rhsMax =   2.55808235111539E-04  1.02577992637490E-02
 cg2d: Sum(rhs),rhsMax =   2.55865821924505E-04  1.02588046321633E-02
 cg2d: Sum(rhs),rhsMax =   2.55923556678514E-04  1.02598100284367E-02
 cg2d: Sum(rhs),rhsMax =   2.55981460963089E-04  1.02608154561212E-02
 cg2d: Sum(rhs),rhsMax =   2.56039513533772E-04  1.02618209100869E-02
 cg2d: Sum(rhs),rhsMax =   2.56097748818835E-04  1.02628263949338E-02
 cg2d: Sum(rhs),rhsMax =   2.56156108277256E-04  1.02638319072395E-02
 cg2d: Sum(rhs),rhsMax =   2.56214634021463E-04  1.02648374485850E-02
 cg2d: Sum(rhs),rhsMax =   2.56273345005142E-04  1.02658430171111E-02
 cg2d: Sum(rhs),rhsMax =   2.56332194076791E-04  1.02668486136125E-02
 cg2d: Sum(rhs),rhsMax =   2.56391207087066E-04  1.02678542368069E-02
 cg2d: Sum(rhs),rhsMax =   2.56450362162462E-04  1.02688598885057E-02
 cg2d: Sum(rhs),rhsMax =   2.56509664603093E-04  1.02698655651032E-02
 cg2d: Sum(rhs),rhsMax =   2.56569158808655E-04  1.02708712710904E-02
 cg2d: Sum(rhs),rhsMax =   2.56628790038627E-04  1.02718770027318E-02
 cg2d: Sum(rhs),rhsMax =   2.56688571376337E-04  1.02728827618882E-02
 cg2d: Sum(rhs),rhsMax =   2.56748488167660E-04  1.02738885460701E-02
 cg2d: Sum(rhs),rhsMax =   2.56808590727150E-04  1.02748943566621E-02
 cg2d: Sum(rhs),rhsMax =   2.56868844838568E-04  1.02759001915054E-02
(PID.TID 0000.0001)      cg2d_init_res =   5.04324734592898E-03
(PID.TID 0000.0001)      cg2d_iters(min,last) =      -1     379
(PID.TID 0000.0001)      cg2d_last_res =   8.88135877008953E-08
(PID.TID 0000.0001) // =======================================================
(PID.TID 0000.0001) // Begin MONITOR dynamic field statistics
(PID.TID 0000.0001) // =======================================================
(PID.TID 0000.0001) %MON time_tsnumber                =                  7560
(PID.TID 0000.0001) %MON time_secondsf                =   9.0720000000000E+06
(PID.TID 0000.0001) %MON dynstat_eta_max              =   9.7624818115086E-02
(PID.TID 0000.0001) %MON dynstat_eta_min              =  -2.1413640830095E-01
(PID.TID 0000.0001) %MON dynstat_eta_mean             =  -1.2565277517564E-08
(PID.TID 0000.0001) %MON dynstat_eta_sd               =   8.1749759993042E-02
(PID.TID 0000.0001) %MON dynstat_eta_del2             =   4.7735394237159E-07
(PID.TID 0000.0001) %MON dynstat_uvel_max             =   7.4604610335035E-02
(PID.TID 0000.0001) %MON dynstat_uvel_min             =  -9.4078601628957E-02
(PID.TID 0000.0001) %MON dynstat_uvel_mean            =   1.9676502852745E-07
(PID.TID 0000.0001) %MON dynstat_uvel_sd              =   3.2942768365874E-02
(PID.TID 0000.0001) %MON dynstat_uvel_del2            =   7.6963022063831E-07
(PID.TID 0000.0001) %MON dynstat_vvel_max             =   8.4485340735604E-02
(PID.TID 0000.0001) %MON dynstat_vvel_min             =  -7.0559377843900E-02
(PID.TID 0000.0001) %MON dynstat_vvel_mean            =  -1.4891614648626E-07
(PID.TID 0000.0001) %MON dynstat_vvel_sd              =   3.0668741157270E-02
(PID.TID 0000.0001) %MON dynstat_vvel_del2            =   1.0388687212624E-06
(PID.TID 0000.0001) %MON dynstat_wvel_max             =   1.9188362141140E-08
(PID.TID 0000.0001) %MON dynstat_wvel_min             =  -1.7112433221191E-08
(PID.TID 0000.0001) %MON dynstat_wvel_mean            =  -2.6417852859859E-22
(PID.TID 0000.0001) %MON dynstat_wvel_sd              =   7.4482304734958E-09
(PID.TID 0000.0001) %MON dynstat_wvel_del2            =   5.9263589095305E-14
(PID.TID 0000.0001) %MON dynstat_theta_max            =   2.0000000000000E+01
(PID.TID 0000.0001) %MON dynstat_theta_min            =   2.0000000000000E+01
(PID.TID 0000.0001) %MON dynstat_theta_mean           =   1.9999999999999E+01
(PID.TID 0000.0001) %MON dynstat_theta_sd             =   1.1972645097557E-12
(PID.TID 0000.0001) %MON dynstat_theta_del2           =   0.0000000000000E+00
(PID.TID 0000.0001) %MON dynstat_salt_max             =   3.0000000000000E+01
(PID.TID 0000.0001) %MON dynstat_salt_min             =   3.0000000000000E+01
(PID.TID 0000.0001) %MON dynstat_salt_mean            =   2.9999999999998E+01
(PID.TID 0000.0001) %MON dynstat_salt_sd              =   2.1529444893531E-12
(PID.TID 0000.0001) %MON dynstat_salt_del2            =   0.0000000000000E+00
(PID.TID 0000.0001) %MON trAdv_CFL_u_max              =   2.2577555291983E-02
(PID.TID 0000.0001) %MON trAdv_CFL_v_max              =   2.0274120122870E-02
(PID.TID 0000.0001) %MON trAdv_CFL_w_max              =   4.8714937455624E-09
(PID.TID 0000.0001) %MON advcfl_uvel_max              =   2.2578864390950E-02
(PID.TID 0000.0001) %MON advcfl_vvel_max              =   2.0276481776545E-02
(PID.TID 0000.0001) %MON advcfl_wvel_max              =   9.2104138277471E-09
(PID.TID 0000.0001) %MON advcfl_W_hf_max              =   0.0000000000000E+00
(PID.TID 0000.0001) %MON pe_b_mean                    =   6.8376481534243E-06
(PID.TID 0000.0001) %MON ke_max                       =   4.4264228933612E-03
(PID.TID 0000.0001) %MON ke_mean                      =   1.0083393927800E-03
(PID.TID 0000.0001) %MON ke_vol                       =   7.2529629296391E+15
(PID.TID 0000.0001) %MON vort_r_min                   =  -3.2561044814627E-06
(PID.TID 0000.0001) %MON vort_r_max                   =   2.7748406221671E-06
(PID.TID 0000.0001) %MON vort_a_mean                  =   1.0615000000000E-04
(PID.TID 0000.0001) %MON vort_a_sd                    =   3.5986458741375E-06
(PID.TID 0000.0001) %MON vort_p_mean                  =   1.1210870169429E-04
(PID.TID 0000.0001) %MON vort_p_sd                    =   2.1059952983371E-05
(PID.TID 0000.0001) %MON surfExpan_theta_mean         =  -5.0755830234742E-21
(PID.TID 0000.0001) %MON surfExpan_salt_mean          =  -7.5412353560106E-21
(PID.TID 0000.0001) // =======================================================
(PID.TID 0000.0001) // End MONITOR dynamic field statistics
(PID.TID 0000.0001) // =======================================================
 cg2d: Sum(rhs),rhsMax =   2.56929247435455E-04  1.02769060543263E-02
 cg2d: Sum(rhs),rhsMax =   2.56989837894381E-04  1.02779119411805E-02
 cg2d: Sum(rhs),rhsMax =   2.57050542190974E-04  1.02789178540567E-02
 cg2d: Sum(rhs),rhsMax =   2.57111407384237E-04  1.02799237898914E-02
 cg2d: Sum(rhs),rhsMax =   2.57172423902665E-04  1.02809297529830E-02
 cg2d: Sum(rhs),rhsMax =   2.57233587598752E-04  1.02819357386456E-02
 cg2d: Sum(rhs),rhsMax =   2.57294908709415E-04  1.02829417494850E-02
 cg2d: Sum(rhs),rhsMax =   2.57356385892412E-04  1.02839477832596E-02
 cg2d: Sum(rhs),rhsMax =   2.57417995388557E-04  1.02849538422145E-02
 cg2d: Sum(rhs),rhsMax =   2.57479772053055E-04  1.02859599229144E-02
 cg2d: Sum(rhs),rhsMax =   2.57541699829044E-04  1.02869660287204E-02
 cg2d: Sum(rhs),rhsMax =   2.57603766803137E-04  1.02879721555020E-02
 cg2d: Sum(rhs),rhsMax =   2.57665972981908E-04  1.02889783072629E-02
 cg2d: Sum(rhs),rhsMax =   2.57728345122690E-04  1.02899844803689E-02
 cg2d: Sum(rhs),rhsMax =   2.57790876382431E-04  1.02909906759731E-02
 cg2d: Sum(rhs),rhsMax =   2.57853531221552E-04  1.02919968922695E-02
 cg2d: Sum(rhs),rhsMax =   2.57916370908561E-04  1.02930031321020E-02
 cg2d: Sum(rhs),rhsMax =   2.57979303436559E-04  1.02940093915690E-02
 cg2d: Sum(rhs),rhsMax =   2.58042410804219E-04  1.02950156733362E-02
 cg2d: Sum(rhs),rhsMax =   2.58105660976117E-04  1.02960219752369E-02
 cg2d: Sum(rhs),rhsMax =   2.58169093352287E-04  1.02970282988852E-02
 cg2d: Sum(rhs),rhsMax =   2.58232625398619E-04  1.02980346416745E-02
 cg2d: Sum(rhs),rhsMax =   2.58296328995081E-04  1.02990410061721E-02
 cg2d: Sum(rhs),rhsMax =   2.58360132801035E-04  1.03000473874852E-02
 cg2d: Sum(rhs),rhsMax =   2.58424135343807E-04  1.03010537921157E-02
 cg2d: Sum(rhs),rhsMax =   2.58488248279743E-04  1.03020602147844E-02
 cg2d: Sum(rhs),rhsMax =   2.58552541047676E-04  1.03030666562380E-02
 cg2d: Sum(rhs),rhsMax =   2.58616957875556E-04  1.03040731165235E-02
 cg2d: Sum(rhs),rhsMax =   2.58681494456873E-04  1.03050795949637E-02
 cg2d: Sum(rhs),rhsMax =   2.58746221898629E-04  1.03060860922633E-02
 cg2d: Sum(rhs),rhsMax =   2.58811056582537E-04  1.03070926064489E-02
 cg2d: Sum(rhs),rhsMax =   2.58876051113251E-04  1.03080991399148E-02
 cg2d: Sum(rhs),rhsMax =   2.58941157161510E-04  1.03091056879152E-02
 cg2d: Sum(rhs),rhsMax =   2.59006432058038E-04  1.03101122568900E-02
 cg2d: Sum(rhs),rhsMax =   2.59071819662858E-04  1.03111188408914E-02
 cg2d: Sum(rhs),rhsMax =   2.59137375528290E-04  1.03121254413632E-02
 cg2d: Sum(rhs),rhsMax =   2.59203068972152E-04  1.03131320562402E-02
 cg2d: Sum(rhs),rhsMax =   2.59268915809437E-04  1.03141386897114E-02
 cg2d: Sum(rhs),rhsMax =   2.59334871076187E-04  1.03151453362460E-02
 cg2d: Sum(rhs),rhsMax =   2.59400992820322E-04  1.03161519996921E-02
 cg2d: Sum(rhs),rhsMax =   2.59467265792740E-04  1.03171586772477E-02
 cg2d: Sum(rhs),rhsMax =   2.59533679588963E-04  1.03181653701422E-02
 cg2d: Sum(rhs),rhsMax =   2.59600205926948E-04  1.03191720770556E-02
 cg2d: Sum(rhs),rhsMax =   2.59666883401415E-04  1.03201787983861E-02
 cg2d: Sum(rhs),rhsMax =   2.59733693328570E-04  1.03211855332064E-02
 cg2d: Sum(rhs),rhsMax =   2.59800643778157E-04  1.03221922816935E-02
 cg2d: Sum(rhs),rhsMax =   2.59867740145666E-04  1.03231990431523E-02
 cg2d: Sum(rhs),rhsMax =   2.59934956409889E-04  1.03242058174642E-02
 cg2d: Sum(rhs),rhsMax =   2.60002331114792E-04  1.03252126043509E-02
 cg2d: Sum(rhs),rhsMax =   2.60069835117600E-04  1.03262194030735E-02
 cg2d: Sum(rhs),rhsMax =   2.60137460837417E-04  1.03272262143410E-02
 cg2d: Sum(rhs),rhsMax =   2.60205211521926E-04  1.03282330356768E-02
 cg2d: Sum(rhs),rhsMax =   2.60273110655483E-04  1.03292398706134E-02
 cg2d: Sum(rhs),rhsMax =   2.60341085339200E-04  1.03302467132387E-02
 cg2d: Sum(rhs),rhsMax =   2.60409219683783E-04  1.03312535694664E-02
 cg2d: Sum(rhs),rhsMax =   2.60477516065474E-04  1.03322604344442E-02
 cg2d: Sum(rhs),rhsMax =   2.60545958813597E-04  1.03332673098779E-02
 cg2d: Sum(rhs),rhsMax =   2.60614511400354E-04  1.03342741941259E-02
 cg2d: Sum(rhs),rhsMax =   2.60683211820677E-04  1.03352810880723E-02
 cg2d: Sum(rhs),rhsMax =   2.60752043796062E-04  1.03362879904576E-02
 cg2d: Sum(rhs),rhsMax =   2.60821012704315E-04  1.03372949021111E-02
 cg2d: Sum(rhs),rhsMax =   2.60890123910033E-04  1.03383018212910E-02
 cg2d: Sum(rhs),rhsMax =   2.60959364135028E-04  1.03393087491575E-02
 cg2d: Sum(rhs),rhsMax =   2.61028711325620E-04  1.03403156830897E-02
 cg2d: Sum(rhs),rhsMax =   2.61098201636039E-04  1.03413226262327E-02
 cg2d: Sum(rhs),rhsMax =   2.61167774393285E-04  1.03423295724777E-02
 cg2d: Sum(rhs),rhsMax =   2.61237517285720E-04  1.03433365297404E-02
 cg2d: Sum(rhs),rhsMax =   2.61307365818645E-04  1.03443434918862E-02
 cg2d: Sum(rhs),rhsMax =   2.61377384682591E-04  1.03453504596498E-02
 cg2d: Sum(rhs),rhsMax =   2.61447506920115E-04  1.03463574313409E-02
 cg2d: Sum(rhs),rhsMax =   2.61517783095333E-04  1.03473644091526E-02
 cg2d: Sum(rhs),rhsMax =   2.61588172132262E-04  1.03483713900869E-02
(PID.TID 0000.0001)      cg2d_init_res =   4.95091857023193E-03
(PID.TID 0000.0001)      cg2d_iters(min,last) =      -1     379
(PID.TID 0000.0001)      cg2d_last_res =   8.86490356869135E-08
(PID.TID 0000.0001) // =======================================================
(PID.TID 0000.0001) // Begin MONITOR dynamic field statistics
(PID.TID 0000.0001) // =======================================================
(PID.TID 0000.0001) %MON time_tsnumber                =                  7632
(PID.TID 0000.0001) %MON time_secondsf                =   9.1584000000000E+06
(PID.TID 0000.0001) %MON dynstat_eta_max              =   9.7475337667434E-02
(PID.TID 0000.0001) %MON dynstat_eta_min              =  -2.1545994120646E-01
(PID.TID 0000.0001) %MON dynstat_eta_mean             =  -1.2886814467923E-08
(PID.TID 0000.0001) %MON dynstat_eta_sd               =   8.2211323270639E-02
(PID.TID 0000.0001) %MON dynstat_eta_del2             =   4.7984482792632E-07
(PID.TID 0000.0001) %MON dynstat_uvel_max             =   7.4949232156749E-02
(PID.TID 0000.0001) %MON dynstat_uvel_min             =  -9.4470220698112E-02
(PID.TID 0000.0001) %MON dynstat_uvel_mean            =   1.9808580043823E-07
(PID.TID 0000.0001) %MON dynstat_uvel_sd              =   3.3127701244989E-02
(PID.TID 0000.0001) %MON dynstat_uvel_del2            =   7.7342953895256E-07
(PID.TID 0000.0001) %MON dynstat_vvel_max             =   8.5176980153029E-02
(PID.TID 0000.0001) %MON dynstat_vvel_min             =  -7.1235120254137E-02
(PID.TID 0000.0001) %MON dynstat_vvel_mean            =  -1.7894912331913E-07
(PID.TID 0000.0001) %MON dynstat_vvel_sd              =   3.0859144313182E-02
(PID.TID 0000.0001) %MON dynstat_vvel_del2            =   1.0383614034676E-06
(PID.TID 0000.0001) %MON dynstat_wvel_max             =   2.0041262379382E-08
(PID.TID 0000.0001) %MON dynstat_wvel_min             =  -1.6444337638095E-08
(PID.TID 0000.0001) %MON dynstat_wvel_mean            =   4.9672275416174E-21
(PID.TID 0000.0001) %MON dynstat_wvel_sd              =   7.4515873494871E-09
(PID.TID 0000.0001) %MON dynstat_wvel_del2            =   5.8396501352740E-14
(PID.TID 0000.0001) %MON dynstat_theta_max            =   2.0000000000000E+01
(PID.TID 0000.0001) %MON dynstat_theta_min            =   2.0000000000000E+01
(PID.TID 0000.0001) %MON dynstat_theta_mean           =   1.9999999999999E+01
(PID.TID 0000.0001) %MON dynstat_theta_sd             =   1.1972645097557E-12
(PID.TID 0000.0001) %MON dynstat_theta_del2           =   0.0000000000000E+00
(PID.TID 0000.0001) %MON dynstat_salt_max             =   3.0000000000000E+01
(PID.TID 0000.0001) %MON dynstat_salt_min             =   3.0000000000000E+01
(PID.TID 0000.0001) %MON dynstat_salt_mean            =   2.9999999999998E+01
(PID.TID 0000.0001) %MON dynstat_salt_sd              =   2.1529444893531E-12
(PID.TID 0000.0001) %MON dynstat_salt_del2            =   0.0000000000000E+00
(PID.TID 0000.0001) %MON trAdv_CFL_u_max              =   2.2671551323176E-02
(PID.TID 0000.0001) %MON trAdv_CFL_v_max              =   2.0440223054027E-02
(PID.TID 0000.0001) %MON trAdv_CFL_w_max              =   5.0958874225003E-09
(PID.TID 0000.0001) %MON advcfl_uvel_max              =   2.2672852967547E-02
(PID.TID 0000.0001) %MON advcfl_vvel_max              =   2.0442475236727E-02
(PID.TID 0000.0001) %MON advcfl_wvel_max              =   9.6198059421033E-09
(PID.TID 0000.0001) %MON advcfl_W_hf_max              =   0.0000000000000E+00
(PID.TID 0000.0001) %MON pe_b_mean                    =   6.9150775374709E-06
(PID.TID 0000.0001) %MON ke_max                       =   4.4634859136582E-03
(PID.TID 0000.0001) %MON ke_mean                      =   1.0202523782961E-03
(PID.TID 0000.0001) %MON ke_vol                       =   7.2529629296391E+15
(PID.TID 0000.0001) %MON vort_r_min                   =  -3.2795606276324E-06
(PID.TID 0000.0001) %MON vort_r_max                   =   2.7569561188542E-06
(PID.TID 0000.0001) %MON vort_a_mean                  =   1.0615000000000E-04
(PID.TID 0000.0001) %MON vort_a_sd                    =   3.5989729792805E-06
(PID.TID 0000.0001) %MON vort_p_mean                  =   1.1210870169429E-04
(PID.TID 0000.0001) %MON vort_p_sd                    =   2.1059989743231E-05
(PID.TID 0000.0001) %MON surfExpan_theta_mean         =   9.9512517555568E-20
(PID.TID 0000.0001) %MON surfExpan_salt_mean          =   1.4936963968052E-19
(PID.TID 0000.0001) // =======================================================
(PID.TID 0000.0001) // End MONITOR dynamic field statistics
(PID.TID 0000.0001) // =======================================================
 cg2d: Sum(rhs),rhsMax =   2.61658701071929E-04  1.03493783773229E-02
 cg2d: Sum(rhs),rhsMax =   2.61729334151370E-04  1.03503853671043E-02
 cg2d: Sum(rhs),rhsMax =   2.61800128421356E-04  1.03513923614681E-02
 cg2d: Sum(rhs),rhsMax =   2.61871031148471E-04  1.03523993576365E-02
 cg2d: Sum(rhs),rhsMax =   2.61942067325148E-04  1.03534063587340E-02
 cg2d: Sum(rhs),rhsMax =   2.62013208808075E-04  1.03544133594052E-02
 cg2d: Sum(rhs),rhsMax =   2.62084487967350E-04  1.03554203657459E-02
 cg2d: Sum(rhs),rhsMax =   2.62155865077537E-04  1.03564273721436E-02
 cg2d: Sum(rhs),rhsMax =   2.62227415141668E-04  1.03574343809492E-02
 cg2d: Sum(rhs),rhsMax =   2.62299060393691E-04  1.03584413888939E-02
 cg2d: Sum(rhs),rhsMax =   2.62370854723405E-04  1.03594483983433E-02
 cg2d: Sum(rhs),rhsMax =   2.62442744805441E-04  1.03604554070138E-02
 cg2d: Sum(rhs),rhsMax =   2.62514790361995E-04  1.03614624167593E-02
 cg2d: Sum(rhs),rhsMax =   2.62586934075633E-04  1.03624694244025E-02
 cg2d: Sum(rhs),rhsMax =   2.62659242247694E-04  1.03634764331030E-02
 cg2d: Sum(rhs),rhsMax =   2.62731590257146E-04  1.03644834368541E-02
 cg2d: Sum(rhs),rhsMax =   2.62804109537482E-04  1.03654904429424E-02
 cg2d: Sum(rhs),rhsMax =   2.62876753725456E-04  1.03664974457668E-02
 cg2d: Sum(rhs),rhsMax =   2.62949548112155E-04  1.03675044463782E-02
 cg2d: Sum(rhs),rhsMax =   2.63022431473310E-04  1.03685114431794E-02
 cg2d: Sum(rhs),rhsMax =   2.63095469789308E-04  1.03695184373651E-02
 cg2d: Sum(rhs),rhsMax =   2.63168600351124E-04  1.03705254261697E-02
 cg2d: Sum(rhs),rhsMax =   2.63241857875705E-04  1.03715324128065E-02
 cg2d: Sum(rhs),rhsMax =   2.63315232601013E-04  1.03725393929737E-02
 cg2d: Sum(rhs),rhsMax =   2.63388740329728E-04  1.03735463696816E-02
 cg2d: Sum(rhs),rhsMax =   2.63462371329242E-04  1.03745533400047E-02
 cg2d: Sum(rhs),rhsMax =   2.63536118960990E-04  1.03755603057752E-02
 cg2d: Sum(rhs),rhsMax =   2.63609997702136E-04  1.03765672641403E-02
 cg2d: Sum(rhs),rhsMax =   2.63683998049389E-04  1.03775742174460E-02
 cg2d: Sum(rhs),rhsMax =   2.63758092576068E-04  1.03785811612155E-02
 cg2d: Sum(rhs),rhsMax =   2.63832329396047E-04  1.03795881010760E-02
 cg2d: Sum(rhs),rhsMax =   2.63906643440477E-04  1.03805950309138E-02
 cg2d: Sum(rhs),rhsMax =   2.63981099267707E-04  1.03816019534122E-02
 cg2d: Sum(rhs),rhsMax =   2.64055675240271E-04  1.03826088666641E-02
 cg2d: Sum(rhs),rhsMax =   2.64130364349762E-04  1.03836157708544E-02
 cg2d: Sum(rhs),rhsMax =   2.64205193290503E-04  1.03846226655606E-02
 cg2d: Sum(rhs),rhsMax =   2.64280132813400E-04  1.03856295496695E-02
 cg2d: Sum(rhs),rhsMax =   2.64355210037627E-04  1.03866364246891E-02
 cg2d: Sum(rhs),rhsMax =   2.64440346567172E-04  1.03876432765697E-02
 cg2d: Sum(rhs),rhsMax =   2.64525615064560E-04  1.03886501295336E-02
 cg2d: Sum(rhs),rhsMax =   2.64601042177702E-04  1.03896569807318E-02
 cg2d: Sum(rhs),rhsMax =   2.64686589607710E-04  1.03906637979585E-02
 cg2d: Sum(rhs),rhsMax =   2.64772259397765E-04  1.03916706144604E-02
 cg2d: Sum(rhs),rhsMax =   2.64848038641909E-04  1.03926774276929E-02
 cg2d: Sum(rhs),rhsMax =   2.64933990795413E-04  1.03936842062884E-02
 cg2d: Sum(rhs),rhsMax =   2.65020046050545E-04  1.03946909821405E-02
 cg2d: Sum(rhs),rhsMax =   2.65106275454050E-04  1.03956977422522E-02
 cg2d: Sum(rhs),rhsMax =   2.65192631198917E-04  1.03967044891775E-02
 cg2d: Sum(rhs),rhsMax =   2.65279089698908E-04  1.03977112207326E-02
 cg2d: Sum(rhs),rhsMax =   2.65365684379329E-04  1.03987179362427E-02
 cg2d: Sum(rhs),rhsMax =   2.65452430470211E-04  1.03997246372753E-02
 cg2d: Sum(rhs),rhsMax =   2.65539279040083E-04  1.04007313190308E-02
 cg2d: Sum(rhs),rhsMax =   2.65626270775728E-04  1.04017379859772E-02
 cg2d: Sum(rhs),rhsMax =   2.65713390150085E-04  1.04027446328870E-02
 cg2d: Sum(rhs),rhsMax =   2.65800602702298E-04  1.04037512652948E-02
 cg2d: Sum(rhs),rhsMax =   2.65887952030561E-04  1.04047578752182E-02
 cg2d: Sum(rhs),rhsMax =   2.65975393761145E-04  1.04057644708660E-02
 cg2d: Sum(rhs),rhsMax =   2.66062989287625E-04  1.04067710421036E-02
 cg2d: Sum(rhs),rhsMax =   2.66150709463845E-04  1.04077775993808E-02
 cg2d: Sum(rhs),rhsMax =   2.66238592803145E-04  1.04087841304769E-02
 cg2d: Sum(rhs),rhsMax =   2.66326563785075E-04  1.04097906466200E-02
 cg2d: Sum(rhs),rhsMax =   2.66414679912867E-04  1.04107971357324E-02
 cg2d: Sum(rhs),rhsMax =   2.66502855803697E-04  1.04118036086066E-02
 cg2d: Sum(rhs),rhsMax =   2.66591227377910E-04  1.04128100552116E-02
 cg2d: Sum(rhs),rhsMax =   2.66679705395617E-04  1.04138164828874E-02
 cg2d: Sum(rhs),rhsMax =   2.66768317771712E-04  1.04148228841684E-02
 cg2d: Sum(rhs),rhsMax =   2.66857057697757E-04  1.04158292633659E-02
 cg2d: Sum(rhs),rhsMax =   2.66945921115409E-04  1.04168356167502E-02
 cg2d: Sum(rhs),rhsMax =   2.67034915580059E-04  1.04178419483538E-02
 cg2d: Sum(rhs),rhsMax =   2.67124010751976E-04  1.04188482526763E-02
 cg2d: Sum(rhs),rhsMax =   2.67213255450966E-04  1.04198545336577E-02
 cg2d: Sum(rhs),rhsMax =   2.67302613439029E-04  1.04208607864796E-02
(PID.TID 0000.0001)      cg2d_init_res =   4.87190806693145E-03
(PID.TID 0000.0001)      cg2d_iters(min,last) =      -1     378
(PID.TID 0000.0001)      cg2d_last_res =   9.95228597182680E-08
(PID.TID 0000.0001) // =======================================================
(PID.TID 0000.0001) // Begin MONITOR dynamic field statistics
(PID.TID 0000.0001) // =======================================================
(PID.TID 0000.0001) %MON time_tsnumber                =                  7704
(PID.TID 0000.0001) %MON time_secondsf                =   9.2448000000000E+06
(PID.TID 0000.0001) %MON dynstat_eta_max              =   9.7287580491124E-02
(PID.TID 0000.0001) %MON dynstat_eta_min              =  -2.1677773599787E-01
(PID.TID 0000.0001) %MON dynstat_eta_mean             =  -1.3261425993479E-08
(PID.TID 0000.0001) %MON dynstat_eta_sd               =   8.2674803003059E-02
(PID.TID 0000.0001) %MON dynstat_eta_del2             =   4.8232876433000E-07
(PID.TID 0000.0001) %MON dynstat_uvel_max             =   7.5343659732552E-02
(PID.TID 0000.0001) %MON dynstat_uvel_min             =  -9.4860665988145E-02
(PID.TID 0000.0001) %MON dynstat_uvel_mean            =   1.9170201702087E-07
(PID.TID 0000.0001) %MON dynstat_uvel_sd              =   3.3324243427893E-02
(PID.TID 0000.0001) %MON dynstat_uvel_del2            =   7.7764926165055E-07
(PID.TID 0000.0001) %MON dynstat_vvel_max             =   8.5837224529004E-02
(PID.TID 0000.0001) %MON dynstat_vvel_min             =  -7.1889425967903E-02
(PID.TID 0000.0001) %MON dynstat_vvel_mean            =  -2.0828274867814E-07
(PID.TID 0000.0001) %MON dynstat_vvel_sd              =   3.1035673027147E-02
(PID.TID 0000.0001) %MON dynstat_vvel_del2            =   1.0379112020669E-06
(PID.TID 0000.0001) %MON dynstat_wvel_max             =   2.0751435870770E-08
(PID.TID 0000.0001) %MON dynstat_wvel_min             =  -1.5785438232124E-08
(PID.TID 0000.0001) %MON dynstat_wvel_mean            =   4.7646038567022E-21
(PID.TID 0000.0001) %MON dynstat_wvel_sd              =   7.4455299522827E-09
(PID.TID 0000.0001) %MON dynstat_wvel_del2            =   5.7813522886614E-14
(PID.TID 0000.0001) %MON dynstat_theta_max            =   2.0000000000000E+01
(PID.TID 0000.0001) %MON dynstat_theta_min            =   2.0000000000000E+01
(PID.TID 0000.0001) %MON dynstat_theta_mean           =   1.9999999999999E+01
(PID.TID 0000.0001) %MON dynstat_theta_sd             =   1.1972645097557E-12
(PID.TID 0000.0001) %MON dynstat_theta_del2           =   0.0000000000000E+00
(PID.TID 0000.0001) %MON dynstat_salt_max             =   3.0000000000000E+01
(PID.TID 0000.0001) %MON dynstat_salt_min             =   3.0000000000000E+01
(PID.TID 0000.0001) %MON dynstat_salt_mean            =   2.9999999999998E+01
(PID.TID 0000.0001) %MON dynstat_salt_sd              =   2.1529444893531E-12
(PID.TID 0000.0001) %MON dynstat_salt_del2            =   0.0000000000000E+00
(PID.TID 0000.0001) %MON trAdv_CFL_u_max              =   2.2765262395403E-02
(PID.TID 0000.0001) %MON trAdv_CFL_v_max              =   2.0598781096764E-02
(PID.TID 0000.0001) %MON trAdv_CFL_w_max              =   5.2835190596873E-09
(PID.TID 0000.0001) %MON advcfl_uvel_max              =   2.2766559837155E-02
(PID.TID 0000.0001) %MON advcfl_vvel_max              =   2.0600933886961E-02
(PID.TID 0000.0001) %MON advcfl_wvel_max              =   9.9606892179698E-09
(PID.TID 0000.0001) %MON advcfl_W_hf_max              =   0.0000000000000E+00
(PID.TID 0000.0001) %MON pe_b_mean                    =   6.9932670741170E-06
(PID.TID 0000.0001) %MON ke_max                       =   4.5004731905619E-03
(PID.TID 0000.0001) %MON ke_mean                      =   1.0321918027767E-03
(PID.TID 0000.0001) %MON ke_vol                       =   7.2529629296391E+15
(PID.TID 0000.0001) %MON vort_r_min                   =  -3.3030909290054E-06
(PID.TID 0000.0001) %MON vort_r_max                   =   2.7394620501815E-06
(PID.TID 0000.0001) %MON vort_a_mean                  =   1.0615000000000E-04
(PID.TID 0000.0001) %MON vort_a_sd                    =   3.5993056149326E-06
(PID.TID 0000.0001) %MON vort_p_mean                  =   1.1210870169429E-04
(PID.TID 0000.0001) %MON vort_p_sd                    =   2.1060014273212E-05
(PID.TID 0000.0001) %MON surfExpan_theta_mean         =   9.5452023427078E-20
(PID.TID 0000.0001) %MON surfExpan_salt_mean          =   1.4312864140705E-19
(PID.TID 0000.0001) // =======================================================
(PID.TID 0000.0001) // End MONITOR dynamic field statistics
(PID.TID 0000.0001) // =======================================================
 cg2d: Sum(rhs),rhsMax =   2.67392092478469E-04  1.04218670153762E-02
 cg2d: Sum(rhs),rhsMax =   2.67481725993658E-04  1.04228732142586E-02
 cg2d: Sum(rhs),rhsMax =   2.67571438395241E-04  1.04238793890382E-02
 cg2d: Sum(rhs),rhsMax =   2.67661310422763E-04  1.04248855317652E-02
 cg2d: Sum(rhs),rhsMax =   2.67751250924764E-04  1.04258916517311E-02
 cg2d: Sum(rhs),rhsMax =   2.67841357186886E-04  1.04268977359905E-02
 cg2d: Sum(rhs),rhsMax =   2.67931572053955E-04  1.04279037960055E-02
 cg2d: Sum(rhs),rhsMax =   2.68021929383732E-04  1.04289098222231E-02
 cg2d: Sum(rhs),rhsMax =   2.68112375646607E-04  1.04299158228267E-02
 cg2d: Sum(rhs),rhsMax =   2.68202990188617E-04  1.04309217867929E-02
 cg2d: Sum(rhs),rhsMax =   2.68293718238385E-04  1.04319277233009E-02
 cg2d: Sum(rhs),rhsMax =   2.68384559988859E-04  1.04329336244723E-02
 cg2d: Sum(rhs),rhsMax =   2.68475548356344E-04  1.04339394975452E-02
 cg2d: Sum(rhs),rhsMax =   2.68566649635702E-04  1.04349453334966E-02
 cg2d: Sum(rhs),rhsMax =   2.68657868969987E-04  1.04359511398609E-02
 cg2d: Sum(rhs),rhsMax =   2.68749213152937E-04  1.04369569078496E-02
 cg2d: Sum(rhs),rhsMax =   2.68840679148096E-04  1.04379626465118E-02
 cg2d: Sum(rhs),rhsMax =   2.68932287401363E-04  1.04389683454935E-02
 cg2d: Sum(rhs),rhsMax =   2.69023945902881E-04  1.04399740130668E-02
 cg2d: Sum(rhs),rhsMax =   2.69115782897244E-04  1.04409796393399E-02
 cg2d: Sum(rhs),rhsMax =   2.69207707176975E-04  1.04419852340953E-02
 cg2d: Sum(rhs),rhsMax =   2.69299826522736E-04  1.04429907868703E-02
 cg2d: Sum(rhs),rhsMax =   2.69391989546473E-04  1.04439963077529E-02
 cg2d: Sum(rhs),rhsMax =   2.69484320199298E-04  1.04450017851071E-02
 cg2d: Sum(rhs),rhsMax =   2.69576785640652E-04  1.04460072277943E-02
 cg2d: Sum(rhs),rhsMax =   2.69669375826519E-04  1.04470126284574E-02
 cg2d: Sum(rhs),rhsMax =   2.69762093475208E-04  1.04480179909467E-02
 cg2d: Sum(rhs),rhsMax =   2.69854895887536E-04  1.04490233124057E-02
 cg2d: Sum(rhs),rhsMax =   2.69947862268914E-04  1.04500285931450E-02
 cg2d: Sum(rhs),rhsMax =   2.70040905031962E-04  1.04510338327801E-02
 cg2d: Sum(rhs),rhsMax =   2.70134105820887E-04  1.04520390307075E-02
 cg2d: Sum(rhs),rhsMax =   2.70227416256014E-04  1.04530441848810E-02
 cg2d: Sum(rhs),rhsMax =   2.70320870999565E-04  1.04540492980177E-02
 cg2d: Sum(rhs),rhsMax =   2.70414452554981E-04  1.04550543667703E-02
 cg2d: Sum(rhs),rhsMax =   2.70508137180063E-04  1.04560593924776E-02
 cg2d: Sum(rhs),rhsMax =   2.70601990740872E-04  1.04570643715843E-02
 cg2d: Sum(rhs),rhsMax =   2.70695924911671E-04  1.04580693076994E-02
 cg2d: Sum(rhs),rhsMax =   2.70790007186987E-04  1.04590741954031E-02
 cg2d: Sum(rhs),rhsMax =   2.70884166943165E-04  1.04600790398853E-02
 cg2d: Sum(rhs),rhsMax =   2.70978496096107E-04  1.04610838354820E-02
 cg2d: Sum(rhs),rhsMax =   2.71072962719551E-04  1.04620885853648E-02
 cg2d: Sum(rhs),rhsMax =   2.71167536525728E-04  1.04630932859548E-02
 cg2d: Sum(rhs),rhsMax =   2.71262250580195E-04  1.04640979388508E-02
 cg2d: Sum(rhs),rhsMax =   2.71357073911984E-04  1.04651025418703E-02
 cg2d: Sum(rhs),rhsMax =   2.71452028955600E-04  1.04661070958650E-02
 cg2d: Sum(rhs),rhsMax =   2.71547107857917E-04  1.04671116012217E-02
 cg2d: Sum(rhs),rhsMax =   2.71642326866463E-04  1.04681160535486E-02
 cg2d: Sum(rhs),rhsMax =   2.71737667101859E-04  1.04691204557476E-02
 cg2d: Sum(rhs),rhsMax =   2.71833136805939E-04  1.04701248052754E-02
 cg2d: Sum(rhs),rhsMax =   2.71928708563528E-04  1.04711291043070E-02
 cg2d: Sum(rhs),rhsMax =   2.72024431112804E-04  1.04721333489311E-02
 cg2d: Sum(rhs),rhsMax =   2.72120284764503E-04  1.04731375406497E-02
 cg2d: Sum(rhs),rhsMax =   2.72216240698604E-04  1.04741416778290E-02
 cg2d: Sum(rhs),rhsMax =   2.72312300745543E-04  1.04751457628943E-02
 cg2d: Sum(rhs),rhsMax =   2.72408504083253E-04  1.04761497891973E-02
 cg2d: Sum(rhs),rhsMax =   2.72504854381357E-04  1.04771537611460E-02
 cg2d: Sum(rhs),rhsMax =   2.72601341351243E-04  1.04781576760875E-02
 cg2d: Sum(rhs),rhsMax =   2.72697962421218E-04  1.04791615351819E-02
 cg2d: Sum(rhs),rhsMax =   2.72794690907368E-04  1.04801653356633E-02
 cg2d: Sum(rhs),rhsMax =   2.72891549334608E-04  1.04811690788823E-02
 cg2d: Sum(rhs),rhsMax =   2.72988546955484E-04  1.04821727631096E-02
 cg2d: Sum(rhs),rhsMax =   2.73085663785979E-04  1.04831763897823E-02
 cg2d: Sum(rhs),rhsMax =   2.73182884394327E-04  1.04841799544246E-02
 cg2d: Sum(rhs),rhsMax =   2.73280257870082E-04  1.04851834586588E-02
 cg2d: Sum(rhs),rhsMax =   2.73377744580586E-04  1.04861869027544E-02
 cg2d: Sum(rhs),rhsMax =   2.73475358524374E-04  1.04871902850609E-02
 cg2d: Sum(rhs),rhsMax =   2.73573105115825E-04  1.04881936065219E-02
 cg2d: Sum(rhs),rhsMax =   2.73670999176164E-04  1.04891968626181E-02
 cg2d: Sum(rhs),rhsMax =   2.73769007443320E-04  1.04902000561719E-02
 cg2d: Sum(rhs),rhsMax =   2.73867111560230E-04  1.04912031879786E-02
 cg2d: Sum(rhs),rhsMax =   2.73965409597586E-04  1.04922062521614E-02
 cg2d: Sum(rhs),rhsMax =   2.74063796334871E-04  1.04932092535817E-02
(PID.TID 0000.0001)      cg2d_init_res =   4.80619950694137E-03
(PID.TID 0000.0001)      cg2d_iters(min,last) =      -1     378
(PID.TID 0000.0001)      cg2d_last_res =   9.83193974945583E-08
(PID.TID 0000.0001) // =======================================================
(PID.TID 0000.0001) // Begin MONITOR dynamic field statistics
(PID.TID 0000.0001) // =======================================================
(PID.TID 0000.0001) %MON time_tsnumber                =                  7776
(PID.TID 0000.0001) %MON time_secondsf                =   9.3312000000000E+06
(PID.TID 0000.0001) %MON dynstat_eta_max              =   9.7099797327213E-02
(PID.TID 0000.0001) %MON dynstat_eta_min              =  -2.1809445666555E-01
(PID.TID 0000.0001) %MON dynstat_eta_mean             =  -1.3691586918735E-08
(PID.TID 0000.0001) %MON dynstat_eta_sd               =   8.3140792608748E-02
(PID.TID 0000.0001) %MON dynstat_eta_del2             =   4.8481815798146E-07
(PID.TID 0000.0001) %MON dynstat_uvel_max             =   7.5792050493670E-02
(PID.TID 0000.0001) %MON dynstat_uvel_min             =  -9.5248250973202E-02
(PID.TID 0000.0001) %MON dynstat_uvel_mean            =   1.7779161896259E-07
(PID.TID 0000.0001) %MON dynstat_uvel_sd              =   3.3532654957210E-02
(PID.TID 0000.0001) %MON dynstat_uvel_del2            =   7.8226043750652E-07
(PID.TID 0000.0001) %MON dynstat_vvel_max             =   8.6469600806828E-02
(PID.TID 0000.0001) %MON dynstat_vvel_min             =  -7.2517171308259E-02
(PID.TID 0000.0001) %MON dynstat_vvel_mean            =  -2.3561129273837E-07
(PID.TID 0000.0001) %MON dynstat_vvel_sd              =   3.1198868149000E-02
(PID.TID 0000.0001) %MON dynstat_vvel_del2            =   1.0376872290709E-06
(PID.TID 0000.0001) %MON dynstat_wvel_max             =   2.1283891461790E-08
(PID.TID 0000.0001) %MON dynstat_wvel_min             =  -1.5263102790341E-08
(PID.TID 0000.0001) %MON dynstat_wvel_mean            =  -7.1642407772138E-22
(PID.TID 0000.0001) %MON dynstat_wvel_sd              =   7.4275494583336E-09
(PID.TID 0000.0001) %MON dynstat_wvel_del2            =   5.7191415984283E-14
(PID.TID 0000.0001) %MON dynstat_theta_max            =   2.0000000000000E+01
(PID.TID 0000.0001) %MON dynstat_theta_min            =   2.0000000000000E+01
(PID.TID 0000.0001) %MON dynstat_theta_mean           =   1.9999999999999E+01
(PID.TID 0000.0001) %MON dynstat_theta_sd             =   1.1972645097557E-12
(PID.TID 0000.0001) %MON dynstat_theta_del2           =   0.0000000000000E+00
(PID.TID 0000.0001) %MON dynstat_salt_max             =   3.0000000000000E+01
(PID.TID 0000.0001) %MON dynstat_salt_min             =   3.0000000000000E+01
(PID.TID 0000.0001) %MON dynstat_salt_mean            =   2.9999999999998E+01
(PID.TID 0000.0001) %MON dynstat_salt_sd              =   2.1529444893531E-12
(PID.TID 0000.0001) %MON dynstat_salt_del2            =   0.0000000000000E+00
(PID.TID 0000.0001) %MON trAdv_CFL_u_max              =   2.2858294062523E-02
(PID.TID 0000.0001) %MON trAdv_CFL_v_max              =   2.0750637485921E-02
(PID.TID 0000.0001) %MON trAdv_CFL_w_max              =   5.4249096927032E-09
(PID.TID 0000.0001) %MON advcfl_uvel_max              =   2.2859580233568E-02
(PID.TID 0000.0001) %MON advcfl_vvel_max              =   2.0752704193639E-02
(PID.TID 0000.0001) %MON advcfl_wvel_max              =   1.0216267901659E-08
(PID.TID 0000.0001) %MON advcfl_W_hf_max              =   0.0000000000000E+00
(PID.TID 0000.0001) %MON pe_b_mean                    =   7.0723231733273E-06
(PID.TID 0000.0001) %MON ke_max                       =   4.5374501470794E-03
(PID.TID 0000.0001) %MON ke_mean                      =   1.0441826443610E-03
(PID.TID 0000.0001) %MON ke_vol                       =   7.2529629296391E+15
(PID.TID 0000.0001) %MON vort_r_min                   =  -3.3266510050715E-06
(PID.TID 0000.0001) %MON vort_r_max                   =   2.7230136580732E-06
(PID.TID 0000.0001) %MON vort_a_mean                  =   1.0615000000000E-04
(PID.TID 0000.0001) %MON vort_a_sd                    =   3.5996457930751E-06
(PID.TID 0000.0001) %MON vort_p_mean                  =   1.1210870169429E-04
(PID.TID 0000.0001) %MON vort_p_sd                    =   2.1060028533258E-05
(PID.TID 0000.0001) %MON surfExpan_theta_mean         =  -1.3922166641455E-20
(PID.TID 0000.0001) %MON surfExpan_salt_mean          =  -2.0717564604694E-20
(PID.TID 0000.0001) // =======================================================
(PID.TID 0000.0001) // End MONITOR dynamic field statistics
(PID.TID 0000.0001) // =======================================================
 cg2d: Sum(rhs),rhsMax =   2.74162340438399E-04  1.04942121865788E-02
 cg2d: Sum(rhs),rhsMax =   2.74261003312116E-04  1.04952150555967E-02
 cg2d: Sum(rhs),rhsMax =   2.74359825223388E-04  1.04962178561850E-02
 cg2d: Sum(rhs),rhsMax =   2.74458771244650E-04  1.04972205908039E-02
 cg2d: Sum(rhs),rhsMax =   2.74557835848031E-04  1.04982232558648E-02
 cg2d: Sum(rhs),rhsMax =   2.74657047366263E-04  1.04992258540804E-02
 cg2d: Sum(rhs),rhsMax =   2.74756367469016E-04  1.05002283812789E-02
 cg2d: Sum(rhs),rhsMax =   2.74855812118748E-04  1.05012308389618E-02
 cg2d: Sum(rhs),rhsMax =   2.74969264722570E-04  1.05022332194255E-02
 cg2d: Sum(rhs),rhsMax =   2.75082820258916E-04  1.05032355354585E-02
 cg2d: Sum(rhs),rhsMax =   2.75196582781160E-04  1.05042377812126E-02
 cg2d: Sum(rhs),rhsMax =   2.75310466142858E-04  1.05052399526477E-02
 cg2d: Sum(rhs),rhsMax =   2.75424526879210E-04  1.05062420523452E-02
 cg2d: Sum(rhs),rhsMax =   2.75538701787415E-04  1.05072440764551E-02
 cg2d: Sum(rhs),rhsMax =   2.75653057358917E-04  1.05082460289482E-02
 cg2d: Sum(rhs),rhsMax =   2.75767510269304E-04  1.05092479036473E-02
 cg2d: Sum(rhs),rhsMax =   2.75882155936566E-04  1.05102497051894E-02
 cg2d: Sum(rhs),rhsMax =   2.75996942257122E-04  1.05112514302802E-02
 cg2d: Sum(rhs),rhsMax =   2.76111907031104E-04  1.05122530787647E-02
 cg2d: Sum(rhs),rhsMax =   2.76227008735589E-04  1.05132546494447E-02
 cg2d: Sum(rhs),rhsMax =   2.76342273408564E-04  1.05142561421476E-02
 cg2d: Sum(rhs),rhsMax =   2.76457673127003E-04  1.05152575563244E-02
 cg2d: Sum(rhs),rhsMax =   2.76573248116387E-04  1.05162588913341E-02
 cg2d: Sum(rhs),rhsMax =   2.76688956860574E-04  1.05172601462060E-02
 cg2d: Sum(rhs),rhsMax =   2.76804840315933E-04  1.05182613211514E-02
 cg2d: Sum(rhs),rhsMax =   2.76920844388226E-04  1.05192624138114E-02
 cg2d: Sum(rhs),rhsMax =   2.77037023807342E-04  1.05202634268056E-02
 cg2d: Sum(rhs),rhsMax =   2.77153319257581E-04  1.05212643562585E-02
 cg2d: Sum(rhs),rhsMax =   2.77269805659950E-04  1.05222652028694E-02
 cg2d: Sum(rhs),rhsMax =   2.77386427614315E-04  1.05232659656583E-02
 cg2d: Sum(rhs),rhsMax =   2.77503232569695E-04  1.05242666447485E-02
 cg2d: Sum(rhs),rhsMax =   2.77620176693597E-04  1.05252672383395E-02
 cg2d: Sum(rhs),rhsMax =   2.77737274403975E-04  1.05262677467877E-02
 cg2d: Sum(rhs),rhsMax =   2.77854500476267E-04  1.05272681672433E-02
 cg2d: Sum(rhs),rhsMax =   2.77971905366839E-04  1.05282685039096E-02
 cg2d: Sum(rhs),rhsMax =   2.78089454705987E-04  1.05292687521477E-02
 cg2d: Sum(rhs),rhsMax =   2.78207191382300E-04  1.05302689119401E-02
 cg2d: Sum(rhs),rhsMax =   2.78325062285357E-04  1.05312689828744E-02
 cg2d: Sum(rhs),rhsMax =   2.78443112496984E-04  1.05322689646147E-02
 cg2d: Sum(rhs),rhsMax =   2.78561319377301E-04  1.05332688561597E-02
 cg2d: Sum(rhs),rhsMax =   2.78679685397656E-04  1.05342686570265E-02
 cg2d: Sum(rhs),rhsMax =   2.78798159698642E-04  1.05352683646943E-02
 cg2d: Sum(rhs),rhsMax =   2.78916819148800E-04  1.05362679838098E-02
 cg2d: Sum(rhs),rhsMax =   2.79035604394079E-04  1.05372675100616E-02
 cg2d: Sum(rhs),rhsMax =   2.79154593910199E-04  1.05382669415923E-02
 cg2d: Sum(rhs),rhsMax =   2.79273761204724E-04  1.05392662797071E-02
 cg2d: Sum(rhs),rhsMax =   2.79393065557829E-04  1.05402655226544E-02
 cg2d: Sum(rhs),rhsMax =   2.79512490091506E-04  1.05412646703746E-02
 cg2d: Sum(rhs),rhsMax =   2.79632125123302E-04  1.05422637222329E-02
 cg2d: Sum(rhs),rhsMax =   2.79751851064949E-04  1.05432626759864E-02
 cg2d: Sum(rhs),rhsMax =   2.79871780256560E-04  1.05442615357452E-02
 cg2d: Sum(rhs),rhsMax =   2.79991873053925E-04  1.05452602971079E-02
 cg2d: Sum(rhs),rhsMax =   2.80112129446465E-04  1.05462589587466E-02
 cg2d: Sum(rhs),rhsMax =   2.80232527422012E-04  1.05472575212367E-02
 cg2d: Sum(rhs),rhsMax =   2.80353100868599E-04  1.05482559842009E-02
 cg2d: Sum(rhs),rhsMax =   2.80473805777500E-04  1.05492543463663E-02
 cg2d: Sum(rhs),rhsMax =   2.80594713351357E-04  1.05502526070825E-02
 cg2d: Sum(rhs),rhsMax =   2.80715762951862E-04  1.05512507659610E-02
 cg2d: Sum(rhs),rhsMax =   2.80836962257862E-04  1.05522488230469E-02
 cg2d: Sum(rhs),rhsMax =   2.80958333987405E-04  1.05532467768638E-02
 cg2d: Sum(rhs),rhsMax =   2.81079891455142E-04  1.05542446264390E-02
 cg2d: Sum(rhs),rhsMax =   2.81201562284377E-04  1.05552423702746E-02
 cg2d: Sum(rhs),rhsMax =   2.81323420652667E-04  1.05562400115446E-02
 cg2d: Sum(rhs),rhsMax =   2.81445401423797E-04  1.05572375465157E-02
 cg2d: Sum(rhs),rhsMax =   2.81567553698818E-04  1.05582349738135E-02
 cg2d: Sum(rhs),rhsMax =   2.81689877292466E-04  1.05592322937954E-02
 cg2d: Sum(rhs),rhsMax =   2.81812385947140E-04  1.05602295063624E-02
 cg2d: Sum(rhs),rhsMax =   2.81935013292990E-04  1.05612266100632E-02
 cg2d: Sum(rhs),rhsMax =   2.82057830329708E-04  1.05622236044110E-02
 cg2d: Sum(rhs),rhsMax =   2.82180809345509E-04  1.05632204884254E-02
 cg2d: Sum(rhs),rhsMax =   2.82303956472234E-04  1.05642172629638E-02
 cg2d: Sum(rhs),rhsMax =   2.82427238186618E-04  1.05652139261878E-02
(PID.TID 0000.0001)      cg2d_init_res =   4.75232929832937E-03
(PID.TID 0000.0001)      cg2d_iters(min,last) =      -1     377
(PID.TID 0000.0001)      cg2d_last_res =   9.95524941941935E-08
(PID.TID 0000.0001) // =======================================================
(PID.TID 0000.0001) // Begin MONITOR dynamic field statistics
(PID.TID 0000.0001) // =======================================================
(PID.TID 0000.0001) %MON time_tsnumber                =                  7848
(PID.TID 0000.0001) %MON time_secondsf                =   9.4176000000000E+06
(PID.TID 0000.0001) %MON dynstat_eta_max              =   9.6916561156193E-02
(PID.TID 0000.0001) %MON dynstat_eta_min              =  -2.1941484957007E-01
(PID.TID 0000.0001) %MON dynstat_eta_mean             =  -1.4207308582141E-08
(PID.TID 0000.0001) %MON dynstat_eta_sd               =   8.3609616806833E-02
(PID.TID 0000.0001) %MON dynstat_eta_del2             =   4.8732443789967E-07
(PID.TID 0000.0001) %MON dynstat_uvel_max             =   7.6304182897731E-02
(PID.TID 0000.0001) %MON dynstat_uvel_min             =  -9.5632014540672E-02
(PID.TID 0000.0001) %MON dynstat_uvel_mean            =   1.5686729630842E-07
(PID.TID 0000.0001) %MON dynstat_uvel_sd              =   3.3752629826358E-02
(PID.TID 0000.0001) %MON dynstat_uvel_del2            =   7.8720924046476E-07
(PID.TID 0000.0001) %MON dynstat_vvel_max             =   8.7078526255049E-02
(PID.TID 0000.0001) %MON dynstat_vvel_min             =  -7.3114187459501E-02
(PID.TID 0000.0001) %MON dynstat_vvel_mean            =  -2.5970241495410E-07
(PID.TID 0000.0001) %MON dynstat_vvel_sd              =   3.1349756599900E-02
(PID.TID 0000.0001) %MON dynstat_vvel_del2            =   1.0378591730956E-06
(PID.TID 0000.0001) %MON dynstat_wvel_max             =   2.1615635638591E-08
(PID.TID 0000.0001) %MON dynstat_wvel_min             =  -1.5455128862523E-08
(PID.TID 0000.0001) %MON dynstat_wvel_mean            =   7.6238009272559E-21
(PID.TID 0000.0001) %MON dynstat_wvel_sd              =   7.3966037523097E-09
(PID.TID 0000.0001) %MON dynstat_wvel_del2            =   5.6678519791301E-14
(PID.TID 0000.0001) %MON dynstat_theta_max            =   2.0000000000000E+01
(PID.TID 0000.0001) %MON dynstat_theta_min            =   2.0000000000000E+01
(PID.TID 0000.0001) %MON dynstat_theta_mean           =   1.9999999999999E+01
(PID.TID 0000.0001) %MON dynstat_theta_sd             =   1.1972645097557E-12
(PID.TID 0000.0001) %MON dynstat_theta_del2           =   0.0000000000000E+00
(PID.TID 0000.0001) %MON dynstat_salt_max             =   3.0000000000000E+01
(PID.TID 0000.0001) %MON dynstat_salt_min             =   3.0000000000000E+01
(PID.TID 0000.0001) %MON dynstat_salt_mean            =   2.9999999999998E+01
(PID.TID 0000.0001) %MON dynstat_salt_sd              =   2.1529444893531E-12
(PID.TID 0000.0001) %MON dynstat_salt_del2            =   0.0000000000000E+00
(PID.TID 0000.0001) %MON trAdv_CFL_u_max              =   2.2950411593002E-02
(PID.TID 0000.0001) %MON trAdv_CFL_v_max              =   2.0896849674974E-02
(PID.TID 0000.0001) %MON trAdv_CFL_w_max              =   5.5154023502468E-09
(PID.TID 0000.0001) %MON advcfl_uvel_max              =   2.2951683489761E-02
(PID.TID 0000.0001) %MON advcfl_vvel_max              =   2.0898846301212E-02
(PID.TID 0000.0001) %MON advcfl_wvel_max              =   1.0375505106524E-08
(PID.TID 0000.0001) %MON advcfl_W_hf_max              =   0.0000000000000E+00
(PID.TID 0000.0001) %MON pe_b_mean                    =   7.1523085704093E-06
(PID.TID 0000.0001) %MON ke_max                       =   4.5742421011076E-03
(PID.TID 0000.0001) %MON ke_mean                      =   1.0562475584289E-03
(PID.TID 0000.0001) %MON ke_vol                       =   7.2529629296391E+15
(PID.TID 0000.0001) %MON vort_r_min                   =  -3.3501796513331E-06
(PID.TID 0000.0001) %MON vort_r_max                   =   2.7082183114686E-06
(PID.TID 0000.0001) %MON vort_a_mean                  =   1.0615000000000E-04
(PID.TID 0000.0001) %MON vort_a_sd                    =   3.5999952299473E-06
(PID.TID 0000.0001) %MON vort_p_mean                  =   1.1210870169429E-04
(PID.TID 0000.0001) %MON vort_p_sd                    =   2.1060035011915E-05
(PID.TID 0000.0001) %MON surfExpan_theta_mean         =   1.5260902697903E-19
(PID.TID 0000.0001) %MON surfExpan_salt_mean          =   2.2906815595804E-19
(PID.TID 0000.0001) // =======================================================
(PID.TID 0000.0001) // End MONITOR dynamic field statistics
(PID.TID 0000.0001) // =======================================================
 cg2d: Sum(rhs),rhsMax =   2.82550717315592E-04  1.05662104765998E-02
 cg2d: Sum(rhs),rhsMax =   2.82674317118715E-04  1.05672069140259E-02
 cg2d: Sum(rhs),rhsMax =   2.82798102658697E-04  1.05682032394650E-02
 cg2d: Sum(rhs),rhsMax =   2.82922042342332E-04  1.05691994502550E-02
 cg2d: Sum(rhs),rhsMax =   2.83046140524231E-04  1.05701955458527E-02
 cg2d: Sum(rhs),rhsMax =   2.83170404778489E-04  1.05711915265639E-02
 cg2d: Sum(rhs),rhsMax =   2.83294857612880E-04  1.05721873908485E-02
 cg2d: Sum(rhs),rhsMax =   2.83419456097474E-04  1.05731831391842E-02
 cg2d: Sum(rhs),rhsMax =   2.83544228996581E-04  1.05741787690775E-02
 cg2d: Sum(rhs),rhsMax =   2.83669133672520E-04  1.05751742808468E-02
 cg2d: Sum(rhs),rhsMax =   2.83794215166232E-04  1.05761696744314E-02
 cg2d: Sum(rhs),rhsMax =   2.83919375385435E-04  1.05771649464912E-02
 cg2d: Sum(rhs),rhsMax =   2.84044744433437E-04  1.05781601014644E-02
 cg2d: Sum(rhs),rhsMax =   2.84170314132691E-04  1.05791551345062E-02
 cg2d: Sum(rhs),rhsMax =   2.84296050457428E-04  1.05801500450837E-02
 cg2d: Sum(rhs),rhsMax =   2.84421934126589E-04  1.05811448333018E-02
 cg2d: Sum(rhs),rhsMax =   2.84547985928248E-04  1.05821394984702E-02
 cg2d: Sum(rhs),rhsMax =   2.84674217147139E-04  1.05831340404461E-02
 cg2d: Sum(rhs),rhsMax =   2.84800604241651E-04  1.05841284574001E-02
 cg2d: Sum(rhs),rhsMax =   2.84927160583481E-04  1.05851227498367E-02
 cg2d: Sum(rhs),rhsMax =   2.85053880079164E-04  1.05861169161561E-02
 cg2d: Sum(rhs),rhsMax =   2.85180742657315E-04  1.05871109559809E-02
 cg2d: Sum(rhs),rhsMax =   2.85307769212085E-04  1.05881048689237E-02
 cg2d: Sum(rhs),rhsMax =   2.85434932137712E-04  1.05890986529874E-02
 cg2d: Sum(rhs),rhsMax =   2.85562301802572E-04  1.05900923096449E-02
 cg2d: Sum(rhs),rhsMax =   2.85689804732540E-04  1.05910858367707E-02
 cg2d: Sum(rhs),rhsMax =   2.85817482180737E-04  1.05920792337978E-02
 cg2d: Sum(rhs),rhsMax =   2.85945321134800E-04  1.05930724987688E-02
 cg2d: Sum(rhs),rhsMax =   2.86073330313965E-04  1.05940656332926E-02
 cg2d: Sum(rhs),rhsMax =   2.86201481789714E-04  1.05950586348935E-02
 cg2d: Sum(rhs),rhsMax =   2.86329810411098E-04  1.05960515047780E-02
 cg2d: Sum(rhs),rhsMax =   2.86458295848087E-04  1.05970442403924E-02
 cg2d: Sum(rhs),rhsMax =   2.86586941116593E-04  1.05980368411721E-02
 cg2d: Sum(rhs),rhsMax =   2.86715730910160E-04  1.05990293078257E-02
 cg2d: Sum(rhs),rhsMax =   2.86844713387305E-04  1.06000216384168E-02
 cg2d: Sum(rhs),rhsMax =   2.86973836650606E-04  1.06010138333869E-02
 cg2d: Sum(rhs),rhsMax =   2.87103151904970E-04  1.06020058903679E-02
 cg2d: Sum(rhs),rhsMax =   2.87232626635875E-04  1.06029978102426E-02
 cg2d: Sum(rhs),rhsMax =   2.87362237466265E-04  1.06039895899086E-02
 cg2d: Sum(rhs),rhsMax =   2.87492027498767E-04  1.06049812312432E-02
 cg2d: Sum(rhs),rhsMax =   2.87621982706940E-04  1.06059727319698E-02
 cg2d: Sum(rhs),rhsMax =   2.87752094551419E-04  1.06069640922282E-02
 cg2d: Sum(rhs),rhsMax =   2.87882377983736E-04  1.06079553113784E-02
 cg2d: Sum(rhs),rhsMax =   2.88012752003613E-04  1.06089463862878E-02
 cg2d: Sum(rhs),rhsMax =   2.88143320542413E-04  1.06099373218544E-02
 cg2d: Sum(rhs),rhsMax =   2.88274053212760E-04  1.06109281136059E-02
 cg2d: Sum(rhs),rhsMax =   2.88404961700666E-04  1.06119187587402E-02
 cg2d: Sum(rhs),rhsMax =   2.88536009237308E-04  1.06129092598391E-02
 cg2d: Sum(rhs),rhsMax =   2.88667227123339E-04  1.06138996141169E-02
 cg2d: Sum(rhs),rhsMax =   2.88798634056293E-04  1.06148898227818E-02
 cg2d: Sum(rhs),rhsMax =   2.88930182463934E-04  1.06158798835030E-02
 cg2d: Sum(rhs),rhsMax =   2.89061884161739E-04  1.06168697965199E-02
 cg2d: Sum(rhs),rhsMax =   2.89193755311506E-04  1.06178595612554E-02
 cg2d: Sum(rhs),rhsMax =   2.89325730502422E-04  1.06188491748174E-02
 cg2d: Sum(rhs),rhsMax =   2.89457910971552E-04  1.06198386411649E-02
 cg2d: Sum(rhs),rhsMax =   2.89590256842519E-04  1.06208279569508E-02
 cg2d: Sum(rhs),rhsMax =   2.89722736129946E-04  1.06218171184666E-02
 cg2d: Sum(rhs),rhsMax =   2.89855399473448E-04  1.06228061279412E-02
 cg2d: Sum(rhs),rhsMax =   2.89988235745799E-04  1.06237949852351E-02
 cg2d: Sum(rhs),rhsMax =   2.90121202533123E-04  1.06247836885344E-02
 cg2d: Sum(rhs),rhsMax =   2.90254324932864E-04  1.06257722364404E-02
 cg2d: Sum(rhs),rhsMax =   2.90387630076286E-04  1.06267606293061E-02
 cg2d: Sum(rhs),rhsMax =   2.90521072245871E-04  1.06277488670865E-02
 cg2d: Sum(rhs),rhsMax =   2.90654653933922E-04  1.06287369476578E-02
 cg2d: Sum(rhs),rhsMax =   2.90788411190030E-04  1.06297248704712E-02
 cg2d: Sum(rhs),rhsMax =   2.90922324125465E-04  1.06307126348810E-02
 cg2d: Sum(rhs),rhsMax =   2.91056388377550E-04  1.06317002412725E-02
 cg2d: Sum(rhs),rhsMax =   2.91190623995255E-04  1.06326876883101E-02
 cg2d: Sum(rhs),rhsMax =   2.91325009653233E-04  1.06336749735464E-02
 cg2d: Sum(rhs),rhsMax =   2.91459538421907E-04  1.06346620978005E-02
 cg2d: Sum(rhs),rhsMax =   2.91594237935094E-04  1.06356490607446E-02
 cg2d: Sum(rhs),rhsMax =   2.91729044637406E-04  1.06366358607618E-02
(PID.TID 0000.0001)      cg2d_init_res =   4.70770426358845E-03
(PID.TID 0000.0001)      cg2d_iters(min,last) =      -1     377
(PID.TID 0000.0001)      cg2d_last_res =   9.90895560313578E-08
(PID.TID 0000.0001) // =======================================================
(PID.TID 0000.0001) // Begin MONITOR dynamic field statistics
(PID.TID 0000.0001) // =======================================================
(PID.TID 0000.0001) %MON time_tsnumber                =                  7920
(PID.TID 0000.0001) %MON time_secondsf                =   9.5040000000000E+06
(PID.TID 0000.0001) %MON dynstat_eta_max              =   9.6742523654018E-02
(PID.TID 0000.0001) %MON dynstat_eta_min              =  -2.2074304523719E-01
(PID.TID 0000.0001) %MON dynstat_eta_mean             =  -1.4774790519724E-08
(PID.TID 0000.0001) %MON dynstat_eta_sd               =   8.4081312444259E-02
(PID.TID 0000.0001) %MON dynstat_eta_del2             =   4.8985762279376E-07
(PID.TID 0000.0001) %MON dynstat_uvel_max             =   7.6885284790898E-02
(PID.TID 0000.0001) %MON dynstat_uvel_min             =  -9.6012215567758E-02
(PID.TID 0000.0001) %MON dynstat_uvel_mean            =   1.2975433168266E-07
(PID.TID 0000.0001) %MON dynstat_uvel_sd              =   3.3983300987957E-02
(PID.TID 0000.0001) %MON dynstat_uvel_del2            =   7.9241685253879E-07
(PID.TID 0000.0001) %MON dynstat_vvel_max             =   8.7673530032721E-02
(PID.TID 0000.0001) %MON dynstat_vvel_min             =  -7.3677453738687E-02
(PID.TID 0000.0001) %MON dynstat_vvel_mean            =  -2.7945126773631E-07
(PID.TID 0000.0001) %MON dynstat_vvel_sd              =   3.1489825128178E-02
(PID.TID 0000.0001) %MON dynstat_vvel_del2            =   1.0385890625556E-06
(PID.TID 0000.0001) %MON dynstat_wvel_max             =   2.1723354023416E-08
(PID.TID 0000.0001) %MON dynstat_wvel_min             =  -1.5797380008735E-08
(PID.TID 0000.0001) %MON dynstat_wvel_mean            =  -1.8720141612564E-21
(PID.TID 0000.0001) %MON dynstat_wvel_sd              =   7.3531427668785E-09
(PID.TID 0000.0001) %MON dynstat_wvel_del2            =   5.6348208336089E-14
(PID.TID 0000.0001) %MON dynstat_theta_max            =   2.0000000000000E+01
(PID.TID 0000.0001) %MON dynstat_theta_min            =   2.0000000000000E+01
(PID.TID 0000.0001) %MON dynstat_theta_mean           =   1.9999999999999E+01
(PID.TID 0000.0001) %MON dynstat_theta_sd             =   1.1972645097557E-12
(PID.TID 0000.0001) %MON dynstat_theta_del2           =   0.0000000000000E+00
(PID.TID 0000.0001) %MON dynstat_salt_max             =   3.0000000000000E+01
(PID.TID 0000.0001) %MON dynstat_salt_min             =   3.0000000000000E+01
(PID.TID 0000.0001) %MON dynstat_salt_mean            =   2.9999999999998E+01
(PID.TID 0000.0001) %MON dynstat_salt_sd              =   2.1529444893531E-12
(PID.TID 0000.0001) %MON dynstat_salt_del2            =   0.0000000000000E+00
(PID.TID 0000.0001) %MON trAdv_CFL_u_max              =   2.3041673001439E-02
(PID.TID 0000.0001) %MON trAdv_CFL_v_max              =   2.1039685770874E-02
(PID.TID 0000.0001) %MON trAdv_CFL_w_max              =   5.5483858888191E-09
(PID.TID 0000.0001) %MON advcfl_uvel_max              =   2.3042931736262E-02
(PID.TID 0000.0001) %MON advcfl_vvel_max              =   2.1041647207853E-02
(PID.TID 0000.0001) %MON advcfl_wvel_max              =   1.0427209931239E-08
(PID.TID 0000.0001) %MON advcfl_W_hf_max              =   0.0000000000000E+00
(PID.TID 0000.0001) %MON pe_b_mean                    =   7.2332377630410E-06
(PID.TID 0000.0001) %MON ke_max                       =   4.6107658068379E-03
(PID.TID 0000.0001) %MON ke_mean                      =   1.0684058685651E-03
(PID.TID 0000.0001) %MON ke_vol                       =   7.2529629296391E+15
(PID.TID 0000.0001) %MON vort_r_min                   =  -3.3736010211011E-06
(PID.TID 0000.0001) %MON vort_r_max                   =   2.6958535266324E-06
(PID.TID 0000.0001) %MON vort_a_mean                  =   1.0615000000000E-04
(PID.TID 0000.0001) %MON vort_a_sd                    =   3.6003552736297E-06
(PID.TID 0000.0001) %MON vort_p_mean                  =   1.1210870169429E-04
(PID.TID 0000.0001) %MON vort_p_sd                    =   2.1060036619504E-05
(PID.TID 0000.0001) %MON surfExpan_theta_mean         =  -3.7547505810020E-20
(PID.TID 0000.0001) %MON surfExpan_salt_mean          =  -5.6194954096134E-20
(PID.TID 0000.0001) // =======================================================
(PID.TID 0000.0001) // End MONITOR dynamic field statistics
(PID.TID 0000.0001) // =======================================================
 cg2d: Sum(rhs),rhsMax =   2.91864050604320E-04  1.06376224968454E-02
 cg2d: Sum(rhs),rhsMax =   2.91999217923937E-04  1.06386089695175E-02
 cg2d: Sum(rhs),rhsMax =   2.92134521514508E-04  1.06395952768751E-02
 cg2d: Sum(rhs),rhsMax =   2.92269965999823E-04  1.06405814194758E-02
 cg2d: Sum(rhs),rhsMax =   2.92405584753538E-04  1.06415673946308E-02
 cg2d: Sum(rhs),rhsMax =   2.92541360527813E-04  1.06425532036037E-02
 cg2d: Sum(rhs),rhsMax =   2.92677271165664E-04  1.06435388438333E-02
 cg2d: Sum(rhs),rhsMax =   2.92813355507283E-04  1.06445243163172E-02
 cg2d: Sum(rhs),rhsMax =   2.92949574520788E-04  1.06455096188060E-02
 cg2d: Sum(rhs),rhsMax =   2.93085929897187E-04  1.06464947516287E-02
 cg2d: Sum(rhs),rhsMax =   2.93222465049042E-04  1.06474797135988E-02
 cg2d: Sum(rhs),rhsMax =   2.93359088594540E-04  1.06484645031269E-02
 cg2d: Sum(rhs),rhsMax =   2.93495906779580E-04  1.06494491219763E-02
 cg2d: Sum(rhs),rhsMax =   2.93632837780418E-04  1.06504335679300E-02
 cg2d: Sum(rhs),rhsMax =   2.93769933651118E-04  1.06514178386469E-02
 cg2d: Sum(rhs),rhsMax =   2.93907208135890E-04  1.06524019347731E-02
 cg2d: Sum(rhs),rhsMax =   2.94044622564743E-04  1.06533858561684E-02
 cg2d: Sum(rhs),rhsMax =   2.94182158054731E-04  1.06543696009150E-02
 cg2d: Sum(rhs),rhsMax =   2.94319876450407E-04  1.06553531694679E-02
 cg2d: Sum(rhs),rhsMax =   2.94457697269958E-04  1.06563365602760E-02
 cg2d: Sum(rhs),rhsMax =   2.94595693495280E-04  1.06573197737335E-02
 cg2d: Sum(rhs),rhsMax =   2.94733236085476E-04  1.06583238788886E-02
 cg2d: Sum(rhs),rhsMax =   2.94870876877589E-04  1.06593304235733E-02
 cg2d: Sum(rhs),rhsMax =   2.95008654278471E-04  1.06603367946348E-02
 cg2d: Sum(rhs),rhsMax =   2.95146578151145E-04  1.06613429898915E-02
 cg2d: Sum(rhs),rhsMax =   2.95284627912224E-04  1.06623490100755E-02
 cg2d: Sum(rhs),rhsMax =   2.95422839999766E-04  1.06633548507154E-02
 cg2d: Sum(rhs),rhsMax =   2.95561141187417E-04  1.06643605126815E-02
 cg2d: Sum(rhs),rhsMax =   2.95699621221574E-04  1.06653659994617E-02
 cg2d: Sum(rhs),rhsMax =   2.95838238242661E-04  1.06663713059889E-02
 cg2d: Sum(rhs),rhsMax =   2.95977005257039E-04  1.06673764314742E-02
 cg2d: Sum(rhs),rhsMax =   2.96115897837804E-04  1.06683813765550E-02
 cg2d: Sum(rhs),rhsMax =   2.96254943716318E-04  1.06693861391337E-02
 cg2d: Sum(rhs),rhsMax =   2.96394123173191E-04  1.06703907204446E-02
 cg2d: Sum(rhs),rhsMax =   2.96533439655234E-04  1.06713951168957E-02
 cg2d: Sum(rhs),rhsMax =   2.96672903945949E-04  1.06723993312104E-02
 cg2d: Sum(rhs),rhsMax =   2.96812411935160E-04  1.06734033598252E-02
 cg2d: Sum(rhs),rhsMax =   2.96952149006340E-04  1.06744072030659E-02
 cg2d: Sum(rhs),rhsMax =   2.97091975831448E-04  1.06754108608026E-02
 cg2d: Sum(rhs),rhsMax =   2.97231964277387E-04  1.06764143282956E-02
 cg2d: Sum(rhs),rhsMax =   2.97372082468593E-04  1.06774176093708E-02
 cg2d: Sum(rhs),rhsMax =   2.97512343588489E-04  1.06784207000149E-02
 cg2d: Sum(rhs),rhsMax =   2.97652733463976E-04  1.06794236018802E-02
 cg2d: Sum(rhs),rhsMax =   2.97793269725222E-04  1.06804263113886E-02
 cg2d: Sum(rhs),rhsMax =   2.97933910712147E-04  1.06814288297870E-02
 cg2d: Sum(rhs),rhsMax =   2.98074712977221E-04  1.06824311580742E-02
 cg2d: Sum(rhs),rhsMax =   2.98215612607977E-04  1.06834332934140E-02
 cg2d: Sum(rhs),rhsMax =   2.98356680514443E-04  1.06844352339647E-02
 cg2d: Sum(rhs),rhsMax =   2.98497844579925E-04  1.06854369805656E-02
 cg2d: Sum(rhs),rhsMax =   2.98639144404943E-04  1.06864385314592E-02
 cg2d: Sum(rhs),rhsMax =   2.98780577184353E-04  1.06874398860221E-02
 cg2d: Sum(rhs),rhsMax =   2.98922161455438E-04  1.06884410446326E-02
 cg2d: Sum(rhs),rhsMax =   2.99063842290625E-04  1.06894420054039E-02
 cg2d: Sum(rhs),rhsMax =   2.99205677277202E-04  1.06904427675858E-02
 cg2d: Sum(rhs),rhsMax =   2.99347571536112E-04  1.06914433305366E-02
 cg2d: Sum(rhs),rhsMax =   2.99489638627680E-04  1.06924436937872E-02
 cg2d: Sum(rhs),rhsMax =   2.99631819005530E-04  1.06934438569298E-02
 cg2d: Sum(rhs),rhsMax =   2.99774143802556E-04  1.06944438161283E-02
 cg2d: Sum(rhs),rhsMax =   2.99916550639420E-04  1.06954435731238E-02
 cg2d: Sum(rhs),rhsMax =   3.00059080737460E-04  1.06964431274203E-02
 cg2d: Sum(rhs),rhsMax =   3.00201753834307E-04  1.06974424776174E-02
 cg2d: Sum(rhs),rhsMax =   3.00344557260610E-04  1.06984416225266E-02
 cg2d: Sum(rhs),rhsMax =   3.00487459744963E-04  1.06994405617211E-02
 cg2d: Sum(rhs),rhsMax =   3.00630509264942E-04  1.07004392951783E-02
 cg2d: Sum(rhs),rhsMax =   3.00773636131750E-04  1.07014378208478E-02
 cg2d: Sum(rhs),rhsMax =   3.00916889702277E-04  1.07024361389758E-02
 cg2d: Sum(rhs),rhsMax =   3.01060222460167E-04  1.07034342474133E-02
 cg2d: Sum(rhs),rhsMax =   3.01203685401338E-04  1.07044321476430E-02
 cg2d: Sum(rhs),rhsMax =   3.01347275076856E-04  1.07054298374012E-02
 cg2d: Sum(rhs),rhsMax =   3.01491007051539E-04  1.07064273148509E-02
 cg2d: Sum(rhs),rhsMax =   3.01634788115330E-04  1.07074245805561E-02
 cg2d: Sum(rhs),rhsMax =   3.01778753530563E-04  1.07084216329802E-02
(PID.TID 0000.0001)      cg2d_init_res =   4.66856486695616E-03
(PID.TID 0000.0001)      cg2d_iters(min,last) =      -1     377
(PID.TID 0000.0001)      cg2d_last_res =   9.81733901036122E-08
(PID.TID 0000.0001) // =======================================================
(PID.TID 0000.0001) // Begin MONITOR dynamic field statistics
(PID.TID 0000.0001) // =======================================================
(PID.TID 0000.0001) %MON time_tsnumber                =                  7992
(PID.TID 0000.0001) %MON time_secondsf                =   9.5904000000000E+06
(PID.TID 0000.0001) %MON dynstat_eta_max              =   9.6596929386050E-02
(PID.TID 0000.0001) %MON dynstat_eta_min              =  -2.2208236863824E-01
(PID.TID 0000.0001) %MON dynstat_eta_mean             =  -1.5387140009083E-08
(PID.TID 0000.0001) %MON dynstat_eta_sd               =   8.4555624486408E-02
(PID.TID 0000.0001) %MON dynstat_eta_del2             =   4.9242590389506E-07
(PID.TID 0000.0001) %MON dynstat_uvel_max             =   7.7537448594040E-02
(PID.TID 0000.0001) %MON dynstat_uvel_min             =  -9.6386558327234E-02
(PID.TID 0000.0001) %MON dynstat_uvel_mean            =   9.7554238649480E-08
(PID.TID 0000.0001) %MON dynstat_uvel_sd              =   3.4223269598401E-02
(PID.TID 0000.0001) %MON dynstat_uvel_del2            =   7.9778209182864E-07
(PID.TID 0000.0001) %MON dynstat_vvel_max             =   8.8256734205436E-02
(PID.TID 0000.0001) %MON dynstat_vvel_min             =  -7.4208082930602E-02
(PID.TID 0000.0001) %MON dynstat_vvel_mean            =  -2.9392885579444E-07
(PID.TID 0000.0001) %MON dynstat_vvel_sd              =   3.1620977664131E-02
(PID.TID 0000.0001) %MON dynstat_vvel_del2            =   1.0400221347577E-06
(PID.TID 0000.0001) %MON dynstat_wvel_max             =   2.1597824669443E-08
(PID.TID 0000.0001) %MON dynstat_wvel_min             =  -1.6186008374207E-08
(PID.TID 0000.0001) %MON dynstat_wvel_mean            =   4.7322523805139E-22
(PID.TID 0000.0001) %MON dynstat_wvel_sd              =   7.2989232381307E-09
(PID.TID 0000.0001) %MON dynstat_wvel_del2            =   5.6117879083153E-14
(PID.TID 0000.0001) %MON dynstat_theta_max            =   2.0000000000000E+01
(PID.TID 0000.0001) %MON dynstat_theta_min            =   2.0000000000000E+01
(PID.TID 0000.0001) %MON dynstat_theta_mean           =   1.9999999999999E+01
(PID.TID 0000.0001) %MON dynstat_theta_sd             =   1.1972645097557E-12
(PID.TID 0000.0001) %MON dynstat_theta_del2           =   0.0000000000000E+00
(PID.TID 0000.0001) %MON dynstat_salt_max             =   3.0000000000000E+01
(PID.TID 0000.0001) %MON dynstat_salt_min             =   3.0000000000000E+01
(PID.TID 0000.0001) %MON dynstat_salt_mean            =   2.9999999999998E+01
(PID.TID 0000.0001) %MON dynstat_salt_sd              =   2.1529444893531E-12
(PID.TID 0000.0001) %MON dynstat_salt_del2            =   0.0000000000000E+00
(PID.TID 0000.0001) %MON trAdv_CFL_u_max              =   2.3131537504919E-02
(PID.TID 0000.0001) %MON trAdv_CFL_v_max              =   2.1179685996326E-02
(PID.TID 0000.0001) %MON trAdv_CFL_w_max              =   5.5203554949004E-09
(PID.TID 0000.0001) %MON advcfl_uvel_max              =   2.3132773998536E-02
(PID.TID 0000.0001) %MON advcfl_vvel_max              =   2.1181616209305E-02
(PID.TID 0000.0001) %MON advcfl_wvel_max              =   1.0366955841333E-08
(PID.TID 0000.0001) %MON advcfl_W_hf_max              =   0.0000000000000E+00
(PID.TID 0000.0001) %MON pe_b_mean                    =   7.3150749387525E-06
(PID.TID 0000.0001) %MON ke_max                       =   4.6469638352321E-03
(PID.TID 0000.0001) %MON ke_mean                      =   1.0806726901532E-03
(PID.TID 0000.0001) %MON ke_vol                       =   7.2529629296391E+15
(PID.TID 0000.0001) %MON vort_r_min                   =  -3.3968275446056E-06
(PID.TID 0000.0001) %MON vort_r_max                   =   2.6866322556541E-06
(PID.TID 0000.0001) %MON vort_a_mean                  =   1.0615000000000E-04
(PID.TID 0000.0001) %MON vort_a_sd                    =   3.6007268414534E-06
(PID.TID 0000.0001) %MON vort_p_mean                  =   1.1210870169429E-04
(PID.TID 0000.0001) %MON vort_p_sd                    =   2.1060036560361E-05
(PID.TID 0000.0001) %MON surfExpan_theta_mean         =   9.5252952638068E-21
(PID.TID 0000.0001) %MON surfExpan_salt_mean          =   1.4514270177330E-20
(PID.TID 0000.0001) // =======================================================
(PID.TID 0000.0001) // End MONITOR dynamic field statistics
(PID.TID 0000.0001) // =======================================================
 cg2d: Sum(rhs),rhsMax =   3.01922774112704E-04  1.07094184720749E-02
 cg2d: Sum(rhs),rhsMax =   3.02066922181541E-04  1.07104150958663E-02
 cg2d: Sum(rhs),rhsMax =   3.02211097611974E-04  1.07114115037953E-02
 cg2d: Sum(rhs),rhsMax =   3.02355438972460E-04  1.07124076973402E-02
 cg2d: Sum(rhs),rhsMax =   3.02499892776545E-04  1.07134036738532E-02
 cg2d: Sum(rhs),rhsMax =   3.02644460431753E-04  1.07143994320000E-02
 cg2d: Sum(rhs),rhsMax =   3.02789107755472E-04  1.07153949719547E-02
 cg2d: Sum(rhs),rhsMax =   3.02933880665001E-04  1.07163902923365E-02
 cg2d: Sum(rhs),rhsMax =   3.03078736572289E-04  1.07173853925497E-02
 cg2d: Sum(rhs),rhsMax =   3.03223711089319E-04  1.07183802720413E-02
 cg2d: Sum(rhs),rhsMax =   3.03368717274469E-04  1.07193749289910E-02
 cg2d: Sum(rhs),rhsMax =   3.03513862583753E-04  1.07203693653706E-02
 cg2d: Sum(rhs),rhsMax =   3.03659115375060E-04  1.07213635783826E-02
 cg2d: Sum(rhs),rhsMax =   3.03804455741271E-04  1.07223575663895E-02
 cg2d: Sum(rhs),rhsMax =   3.03949890830829E-04  1.07233513296724E-02
 cg2d: Sum(rhs),rhsMax =   3.04095445435963E-04  1.07243448662952E-02
 cg2d: Sum(rhs),rhsMax =   3.04241060394431E-04  1.07253381770795E-02
 cg2d: Sum(rhs),rhsMax =   3.04386758634782E-04  1.07263312597241E-02
 cg2d: Sum(rhs),rhsMax =   3.04532555074011E-04  1.07273241149703E-02
 cg2d: Sum(rhs),rhsMax =   3.04678437187669E-04  1.07283167405186E-02
 cg2d: Sum(rhs),rhsMax =   3.04824376169728E-04  1.07293091358557E-02
 cg2d: Sum(rhs),rhsMax =   3.04970423091726E-04  1.07303013023579E-02
 cg2d: Sum(rhs),rhsMax =   3.05116540679551E-04  1.07312932379553E-02
 cg2d: Sum(rhs),rhsMax =   3.05262745574070E-04  1.07322849400132E-02
 cg2d: Sum(rhs),rhsMax =   3.05409049866017E-04  1.07332764097376E-02
 cg2d: Sum(rhs),rhsMax =   3.05555421339926E-04  1.07342676442142E-02
 cg2d: Sum(rhs),rhsMax =   3.05701856545484E-04  1.07352586441166E-02
 cg2d: Sum(rhs),rhsMax =   3.05848366666941E-04  1.07362494102425E-02
 cg2d: Sum(rhs),rhsMax =   3.05994926822074E-04  1.07372399407287E-02
 cg2d: Sum(rhs),rhsMax =   3.06141588863384E-04  1.07382302324280E-02
 cg2d: Sum(rhs),rhsMax =   3.06288329749172E-04  1.07392202871199E-02
 cg2d: Sum(rhs),rhsMax =   3.06435108141772E-04  1.07402101028698E-02
 cg2d: Sum(rhs),rhsMax =   3.06581977940781E-04  1.07411996798069E-02
 cg2d: Sum(rhs),rhsMax =   3.06728896215950E-04  1.07421890159450E-02
 cg2d: Sum(rhs),rhsMax =   3.06875892046834E-04  1.07431781116121E-02
 cg2d: Sum(rhs),rhsMax =   3.07022937702571E-04  1.07441669649095E-02
 cg2d: Sum(rhs),rhsMax =   3.07170020726373E-04  1.07451555761711E-02
 cg2d: Sum(rhs),rhsMax =   3.07317175863945E-04  1.07461439433139E-02
 cg2d: Sum(rhs),rhsMax =   3.07464306327615E-04  1.07471320668813E-02
 cg2d: Sum(rhs),rhsMax =   3.07611546841700E-04  1.07481199448196E-02
 cg2d: Sum(rhs),rhsMax =   3.07758835473388E-04  1.07491075774288E-02
 cg2d: Sum(rhs),rhsMax =   3.07906205133112E-04  1.07500949625448E-02
 cg2d: Sum(rhs),rhsMax =   3.08053613692525E-04  1.07510821007581E-02
 cg2d: Sum(rhs),rhsMax =   3.08201068627018E-04  1.07520689901485E-02
 cg2d: Sum(rhs),rhsMax =   3.08348537109697E-04  1.07530556303331E-02
 cg2d: Sum(rhs),rhsMax =   3.08496063150535E-04  1.07540420225765E-02
 cg2d: Sum(rhs),rhsMax =   3.08643569117431E-04  1.07550281661353E-02
 cg2d: Sum(rhs),rhsMax =   3.08791144214086E-04  1.07560140534743E-02
 cg2d: Sum(rhs),rhsMax =   3.08938754633189E-04  1.07569996903148E-02
 cg2d: Sum(rhs),rhsMax =   3.09086406431455E-04  1.07579850735676E-02
 cg2d: Sum(rhs),rhsMax =   3.09234079351947E-04  1.07589702043543E-02
 cg2d: Sum(rhs),rhsMax =   3.09381801402404E-04  1.07599550790922E-02
 cg2d: Sum(rhs),rhsMax =   3.09529512295204E-04  1.07609396993914E-02
 cg2d: Sum(rhs),rhsMax =   3.09677266555317E-04  1.07619240619644E-02
 cg2d: Sum(rhs),rhsMax =   3.09825010718396E-04  1.07629081685757E-02
 cg2d: Sum(rhs),rhsMax =   3.09972770375651E-04  1.07638920163567E-02
 cg2d: Sum(rhs),rhsMax =   3.10120513470406E-04  1.07648756062305E-02
 cg2d: Sum(rhs),rhsMax =   3.10268306978429E-04  1.07658589362909E-02
 cg2d: Sum(rhs),rhsMax =   3.10415997587743E-04  1.07668420059215E-02
 cg2d: Sum(rhs),rhsMax =   3.10563759771794E-04  1.07678248154470E-02
 cg2d: Sum(rhs),rhsMax =   3.10711460502853E-04  1.07688073653193E-02
 cg2d: Sum(rhs),rhsMax =   3.10859239055754E-04  1.07697896475994E-02
 cg2d: Sum(rhs),rhsMax =   3.11006943309003E-04  1.07707716673360E-02
 cg2d: Sum(rhs),rhsMax =   3.11154680014735E-04  1.07717534242917E-02
 cg2d: Sum(rhs),rhsMax =   3.11302361537483E-04  1.07727349166860E-02
 cg2d: Sum(rhs),rhsMax =   3.11450053112040E-04  1.07737161424258E-02
 cg2d: Sum(rhs),rhsMax =   3.11597698975661E-04  1.07746971026515E-02
 cg2d: Sum(rhs),rhsMax =   3.11745315823149E-04  1.07756777934750E-02
 cg2d: Sum(rhs),rhsMax =   3.11892861787245E-04  1.07766582169135E-02
 cg2d: Sum(rhs),rhsMax =   3.12040399946126E-04  1.07776383711635E-02
 cg2d: Sum(rhs),rhsMax =   3.12187834338677E-04  1.07786182578575E-02
 cg2d: Sum(rhs),rhsMax =   3.12335244857874E-04  1.07795978707033E-02
(PID.TID 0000.0001)      cg2d_init_res =   4.63191122876710E-03
(PID.TID 0000.0001)      cg2d_iters(min,last) =      -1     377
(PID.TID 0000.0001)      cg2d_last_res =   9.53868162464127E-08
(PID.TID 0000.0001) // =======================================================
(PID.TID 0000.0001) // Begin MONITOR dynamic field statistics
(PID.TID 0000.0001) // =======================================================
(PID.TID 0000.0001) %MON time_tsnumber                =                  8064
(PID.TID 0000.0001) %MON time_secondsf                =   9.6768000000000E+06
(PID.TID 0000.0001) %MON dynstat_eta_max              =   9.6496583290270E-02
(PID.TID 0000.0001) %MON dynstat_eta_min              =  -2.2343533982402E-01
(PID.TID 0000.0001) %MON dynstat_eta_mean             =  -1.6031125328059E-08
(PID.TID 0000.0001) %MON dynstat_eta_sd               =   8.5032016836525E-02
(PID.TID 0000.0001) %MON dynstat_eta_del2             =   4.9503527379789E-07
(PID.TID 0000.0001) %MON dynstat_uvel_max             =   7.8246037839099E-02
(PID.TID 0000.0001) %MON dynstat_uvel_min             =  -9.6754367286635E-02
(PID.TID 0000.0001) %MON dynstat_uvel_mean            =   6.1596253118928E-08
(PID.TID 0000.0001) %MON dynstat_uvel_sd              =   3.4470658799519E-02
(PID.TID 0000.0001) %MON dynstat_uvel_del2            =   8.0318680062156E-07
(PID.TID 0000.0001) %MON dynstat_vvel_max             =   8.8833493882626E-02
(PID.TID 0000.0001) %MON dynstat_vvel_min             =  -7.4712940222201E-02
(PID.TID 0000.0001) %MON dynstat_vvel_mean            =  -3.0242295427804E-07
(PID.TID 0000.0001) %MON dynstat_vvel_sd              =   3.1745474844996E-02
(PID.TID 0000.0001) %MON dynstat_vvel_del2            =   1.0422775204372E-06
(PID.TID 0000.0001) %MON dynstat_wvel_max             =   2.1231119548902E-08
(PID.TID 0000.0001) %MON dynstat_wvel_min             =  -1.6581408116035E-08
(PID.TID 0000.0001) %MON dynstat_wvel_mean            =  -2.8948882638584E-21
(PID.TID 0000.0001) %MON dynstat_wvel_sd              =   7.2366496850791E-09
(PID.TID 0000.0001) %MON dynstat_wvel_del2            =   5.5931213210667E-14
(PID.TID 0000.0001) %MON dynstat_theta_max            =   2.0000000000000E+01
(PID.TID 0000.0001) %MON dynstat_theta_min            =   2.0000000000000E+01
(PID.TID 0000.0001) %MON dynstat_theta_mean           =   1.9999999999999E+01
(PID.TID 0000.0001) %MON dynstat_theta_sd             =   1.1972645097557E-12
(PID.TID 0000.0001) %MON dynstat_theta_del2           =   0.0000000000000E+00
(PID.TID 0000.0001) %MON dynstat_salt_max             =   3.0000000000000E+01
(PID.TID 0000.0001) %MON dynstat_salt_min             =   3.0000000000000E+01
(PID.TID 0000.0001) %MON dynstat_salt_mean            =   2.9999999999998E+01
(PID.TID 0000.0001) %MON dynstat_salt_sd              =   2.1529444893531E-12
(PID.TID 0000.0001) %MON dynstat_salt_del2            =   0.0000000000000E+00
(PID.TID 0000.0001) %MON trAdv_CFL_u_max              =   2.3219833228223E-02
(PID.TID 0000.0001) %MON trAdv_CFL_v_max              =   2.1318120309612E-02
(PID.TID 0000.0001) %MON trAdv_CFL_w_max              =   5.4299365757351E-09
(PID.TID 0000.0001) %MON advcfl_uvel_max              =   2.3221048148792E-02
(PID.TID 0000.0001) %MON advcfl_vvel_max              =   2.1320038531830E-02
(PID.TID 0000.0001) %MON advcfl_wvel_max              =   1.0190937383473E-08
(PID.TID 0000.0001) %MON advcfl_W_hf_max              =   0.0000000000000E+00
(PID.TID 0000.0001) %MON pe_b_mean                    =   7.3977344352887E-06
(PID.TID 0000.0001) %MON ke_max                       =   4.6826492914146E-03
(PID.TID 0000.0001) %MON ke_mean                      =   1.0930582264282E-03
(PID.TID 0000.0001) %MON ke_vol                       =   7.2529629296391E+15
(PID.TID 0000.0001) %MON vort_r_min                   =  -3.4197634324732E-06
(PID.TID 0000.0001) %MON vort_r_max                   =   2.6808477558186E-06
(PID.TID 0000.0001) %MON vort_a_mean                  =   1.0615000000000E-04
(PID.TID 0000.0001) %MON vort_a_sd                    =   3.6011103720773E-06
(PID.TID 0000.0001) %MON vort_p_mean                  =   1.1210870169429E-04
(PID.TID 0000.0001) %MON vort_p_sd                    =   2.1060038190572E-05
(PID.TID 0000.0001) %MON surfExpan_theta_mean         =  -5.8117570068599E-20
(PID.TID 0000.0001) %MON surfExpan_salt_mean          =  -8.6995734754350E-20
(PID.TID 0000.0001) // =======================================================
(PID.TID 0000.0001) // End MONITOR dynamic field statistics
(PID.TID 0000.0001) // =======================================================
 cg2d: Sum(rhs),rhsMax =   3.12482611521328E-04  1.07805772133802E-02
 cg2d: Sum(rhs),rhsMax =   3.12629914904917E-04  1.07815562828394E-02
 cg2d: Sum(rhs),rhsMax =   3.12777162783563E-04  1.07825350807245E-02
 cg2d: Sum(rhs),rhsMax =   3.12924348033858E-04  1.07835136028505E-02
 cg2d: Sum(rhs),rhsMax =   3.13071439913498E-04  1.07844918517224E-02
 cg2d: Sum(rhs),rhsMax =   3.13218449030313E-04  1.07854698239106E-02
 cg2d: Sum(rhs),rhsMax =   3.13365315812032E-04  1.07864475204619E-02
 cg2d: Sum(rhs),rhsMax =   3.13512149791997E-04  1.07874249403887E-02
 cg2d: Sum(rhs),rhsMax =   3.13658805180209E-04  1.07884020841398E-02
 cg2d: Sum(rhs),rhsMax =   3.13805403828298E-04  1.07893789461471E-02
 cg2d: Sum(rhs),rhsMax =   3.13951894888909E-04  1.07903555307395E-02
 cg2d: Sum(rhs),rhsMax =   3.14098233987734E-04  1.07913318341054E-02
 cg2d: Sum(rhs),rhsMax =   3.14244459869424E-04  1.07923078579587E-02
 cg2d: Sum(rhs),rhsMax =   3.14390540816015E-04  1.07932835987071E-02
 cg2d: Sum(rhs),rhsMax =   3.14536473022686E-04  1.07942590575161E-02
 cg2d: Sum(rhs),rhsMax =   3.14682237474384E-04  1.07952342314101E-02
 cg2d: Sum(rhs),rhsMax =   3.14827847114642E-04  1.07962091227565E-02
 cg2d: Sum(rhs),rhsMax =   3.14973252727568E-04  1.07971837268171E-02
 cg2d: Sum(rhs),rhsMax =   3.15118493467732E-04  1.07981580495872E-02
 cg2d: Sum(rhs),rhsMax =   3.15263529982398E-04  1.07991320856541E-02
 cg2d: Sum(rhs),rhsMax =   3.15408362498831E-04  1.08001058309962E-02
 cg2d: Sum(rhs),rhsMax =   3.15552942713638E-04  1.08010792862066E-02
 cg2d: Sum(rhs),rhsMax =   3.15697330646458E-04  1.08020524583097E-02
 cg2d: Sum(rhs),rhsMax =   3.15841481790653E-04  1.08030253390146E-02
 cg2d: Sum(rhs),rhsMax =   3.15985366030501E-04  1.08039979277600E-02
 cg2d: Sum(rhs),rhsMax =   3.16128979210975E-04  1.08049702246466E-02
 cg2d: Sum(rhs),rhsMax =   3.16272339831144E-04  1.08059422310255E-02
 cg2d: Sum(rhs),rhsMax =   3.16415377229358E-04  1.08069139429178E-02
 cg2d: Sum(rhs),rhsMax =   3.16558125899917E-04  1.08078853633453E-02
 cg2d: Sum(rhs),rhsMax =   3.16700468548488E-04  1.08088564868972E-02
 cg2d: Sum(rhs),rhsMax =   3.16842495807030E-04  1.08098273195582E-02
 cg2d: Sum(rhs),rhsMax =   3.16984184271622E-04  1.08107978539929E-02
 cg2d: Sum(rhs),rhsMax =   3.17125517232767E-04  1.08117680917552E-02
 cg2d: Sum(rhs),rhsMax =   3.17284862902684E-04  1.08127380299958E-02
 cg2d: Sum(rhs),rhsMax =   3.17443694071617E-04  1.08137076730548E-02
 cg2d: Sum(rhs),rhsMax =   3.17602051345572E-04  1.08146770146774E-02
 cg2d: Sum(rhs),rhsMax =   3.17759800419251E-04  1.08156460579513E-02
 cg2d: Sum(rhs),rhsMax =   3.17916971290822E-04  1.08166147993876E-02
 cg2d: Sum(rhs),rhsMax =   3.18073489070576E-04  1.08175832384210E-02
 cg2d: Sum(rhs),rhsMax =   3.18229415233200E-04  1.08185513797626E-02
 cg2d: Sum(rhs),rhsMax =   3.18384647181268E-04  1.08195192123792E-02
 cg2d: Sum(rhs),rhsMax =   3.18539161292933E-04  1.08204867460214E-02
 cg2d: Sum(rhs),rhsMax =   3.18692908941149E-04  1.08214539706761E-02
 cg2d: Sum(rhs),rhsMax =   3.18845849780610E-04  1.08224208929968E-02
 cg2d: Sum(rhs),rhsMax =   3.18997970347448E-04  1.08233875080134E-02
 cg2d: Sum(rhs),rhsMax =   3.19149224531141E-04  1.08243538185162E-02
 cg2d: Sum(rhs),rhsMax =   3.19299549624966E-04  1.08253198179074E-02
 cg2d: Sum(rhs),rhsMax =   3.19448832090997E-04  1.08262855112603E-02
 cg2d: Sum(rhs),rhsMax =   3.19597138186026E-04  1.08272508931832E-02
 cg2d: Sum(rhs),rhsMax =   3.19744333836625E-04  1.08282159692677E-02
 cg2d: Sum(rhs),rhsMax =   3.19890401576440E-04  1.08291807299934E-02
 cg2d: Sum(rhs),rhsMax =   3.20035264427396E-04  1.08301451831812E-02
 cg2d: Sum(rhs),rhsMax =   3.20198666808233E-04  1.08311093356658E-02
 cg2d: Sum(rhs),rhsMax =   3.20360436481856E-04  1.08320731634010E-02
 cg2d: Sum(rhs),rhsMax =   3.20520502139586E-04  1.08330366738053E-02
 cg2d: Sum(rhs),rhsMax =   3.20698314905284E-04  1.08339998730053E-02
 cg2d: Sum(rhs),rhsMax =   3.20873826019155E-04  1.08349627584770E-02
 cg2d: Sum(rhs),rhsMax =   3.21046989656543E-04  1.08359253218718E-02
 cg2d: Sum(rhs),rhsMax =   3.21217509203027E-04  1.08368875727123E-02
 cg2d: Sum(rhs),rhsMax =   3.21385406313688E-04  1.08378495024674E-02
 cg2d: Sum(rhs),rhsMax =   3.21550430982632E-04  1.08388111140670E-02
 cg2d: Sum(rhs),rhsMax =   3.21712493731403E-04  1.08397724081038E-02
 cg2d: Sum(rhs),rhsMax =   3.21871332424766E-04  1.08407333811114E-02
 cg2d: Sum(rhs),rhsMax =   3.22065939904935E-04  1.08416940113547E-02
 cg2d: Sum(rhs),rhsMax =   3.22255656152392E-04  1.08426543426978E-02
 cg2d: Sum(rhs),rhsMax =   3.22559273130607E-04  1.08436143494459E-02
 cg2d: Sum(rhs),rhsMax =   3.22851504288646E-04  1.08445740344473E-02
 cg2d: Sum(rhs),rhsMax =   3.23260871362672E-04  1.08455334033906E-02
 cg2d: Sum(rhs),rhsMax =   3.23720022626628E-04  1.08464924533640E-02
 cg2d: Sum(rhs),rhsMax =   3.24167002818263E-04  1.08474511654548E-02
 cg2d: Sum(rhs),rhsMax =   3.24586932654655E-04  1.08484095505385E-02
 cg2d: Sum(rhs),rhsMax =   3.24980069696685E-04  1.08493676103563E-02
(PID.TID 0000.0001)      cg2d_init_res =   4.59505553191805E-03
(PID.TID 0000.0001)      cg2d_iters(min,last) =      -1     354
(PID.TID 0000.0001)      cg2d_last_res =   8.94972512796931E-08
(PID.TID 0000.0001) // =======================================================
(PID.TID 0000.0001) // Begin MONITOR dynamic field statistics
(PID.TID 0000.0001) // =======================================================
(PID.TID 0000.0001) %MON time_tsnumber                =                  8136
(PID.TID 0000.0001) %MON time_secondsf                =   9.7632000000000E+06
(PID.TID 0000.0001) %MON dynstat_eta_max              =   9.6454176265536E-02
(PID.TID 0000.0001) %MON dynstat_eta_min              =  -2.2481145075603E-01
(PID.TID 0000.0001) %MON dynstat_eta_mean             =  -1.6799074837604E-08
(PID.TID 0000.0001) %MON dynstat_eta_sd               =   8.5509696598526E-02
(PID.TID 0000.0001) %MON dynstat_eta_del2             =   4.9768923394520E-07
(PID.TID 0000.0001) %MON dynstat_uvel_max             =   7.9018487781409E-02
(PID.TID 0000.0001) %MON dynstat_uvel_min             =  -9.7130513607716E-02
(PID.TID 0000.0001) %MON dynstat_uvel_mean            =   2.3378792839804E-08
(PID.TID 0000.0001) %MON dynstat_uvel_sd              =   3.4723191050772E-02
(PID.TID 0000.0001) %MON dynstat_uvel_del2            =   8.0850356260836E-07
(PID.TID 0000.0001) %MON dynstat_vvel_max             =   8.9409553912374E-02
(PID.TID 0000.0001) %MON dynstat_vvel_min             =  -7.5183842791572E-02
(PID.TID 0000.0001) %MON dynstat_vvel_mean            =  -3.0446981009778E-07
(PID.TID 0000.0001) %MON dynstat_vvel_sd              =   3.1865854837919E-02
(PID.TID 0000.0001) %MON dynstat_vvel_del2            =   1.0454396200471E-06
(PID.TID 0000.0001) %MON dynstat_wvel_max             =   2.0619568987750E-08
(PID.TID 0000.0001) %MON dynstat_wvel_min             =  -1.6962635400705E-08
(PID.TID 0000.0001) %MON dynstat_wvel_mean            =  -4.8133660267886E-21
(PID.TID 0000.0001) %MON dynstat_wvel_sd              =   7.1694988730822E-09
(PID.TID 0000.0001) %MON dynstat_wvel_del2            =   5.5752845366508E-14
(PID.TID 0000.0001) %MON dynstat_theta_max            =   2.0000000000000E+01
(PID.TID 0000.0001) %MON dynstat_theta_min            =   2.0000000000000E+01
(PID.TID 0000.0001) %MON dynstat_theta_mean           =   1.9999999999999E+01
(PID.TID 0000.0001) %MON dynstat_theta_sd             =   1.1972645097557E-12
(PID.TID 0000.0001) %MON dynstat_theta_del2           =   0.0000000000000E+00
(PID.TID 0000.0001) %MON dynstat_salt_max             =   3.0000000000000E+01
(PID.TID 0000.0001) %MON dynstat_salt_min             =   3.0000000000000E+01
(PID.TID 0000.0001) %MON dynstat_salt_mean            =   2.9999999999998E+01
(PID.TID 0000.0001) %MON dynstat_salt_sd              =   2.1529444893531E-12
(PID.TID 0000.0001) %MON dynstat_salt_del2            =   0.0000000000000E+00
(PID.TID 0000.0001) %MON trAdv_CFL_u_max              =   2.3310046895595E-02
(PID.TID 0000.0001) %MON trAdv_CFL_v_max              =   2.1456367765750E-02
(PID.TID 0000.0001) %MON trAdv_CFL_w_max              =   5.2762173634001E-09
(PID.TID 0000.0001) %MON advcfl_uvel_max              =   2.3311323265852E-02
(PID.TID 0000.0001) %MON advcfl_vvel_max              =   2.1458292938970E-02
(PID.TID 0000.0001) %MON advcfl_wvel_max              =   9.8973931141198E-09
(PID.TID 0000.0001) %MON advcfl_W_hf_max              =   0.0000000000000E+00
(PID.TID 0000.0001) %MON pe_b_mean                    =   7.4810835978466E-06
(PID.TID 0000.0001) %MON ke_max                       =   4.7198681793553E-03
(PID.TID 0000.0001) %MON ke_mean                      =   1.1055672689030E-03
(PID.TID 0000.0001) %MON ke_vol                       =   7.2529629296391E+15
(PID.TID 0000.0001) %MON vort_r_min                   =  -3.4423086331682E-06
(PID.TID 0000.0001) %MON vort_r_max                   =   2.6788636815713E-06
(PID.TID 0000.0001) %MON vort_a_mean                  =   1.0615000000000E-04
(PID.TID 0000.0001) %MON vort_a_sd                    =   3.6015057976200E-06
(PID.TID 0000.0001) %MON vort_p_mean                  =   1.1210870169429E-04
(PID.TID 0000.0001) %MON vort_p_sd                    =   2.1060044868348E-05
(PID.TID 0000.0001) %MON surfExpan_theta_mean         =  -9.6151160490711E-20
(PID.TID 0000.0001) %MON surfExpan_salt_mean          =  -1.4427872231152E-19
(PID.TID 0000.0001) // =======================================================
(PID.TID 0000.0001) // End MONITOR dynamic field statistics
(PID.TID 0000.0001) // =======================================================
 cg2d: Sum(rhs),rhsMax =   3.25346741300862E-04  1.08503253416110E-02
 cg2d: Sum(rhs),rhsMax =   3.25784943904008E-04  1.08512827352822E-02
 cg2d: Sum(rhs),rhsMax =   3.26190403183158E-04  1.08522398112038E-02
 cg2d: Sum(rhs),rhsMax =   3.26574851980338E-04  1.08531965609301E-02
 cg2d: Sum(rhs),rhsMax =   3.26927716633917E-04  1.08541529742320E-02
 cg2d: Sum(rhs),rhsMax =   3.27260311970527E-04  1.08551090558071E-02
 cg2d: Sum(rhs),rhsMax =   3.27563000857721E-04  1.08560648070805E-02
 cg2d: Sum(rhs),rhsMax =   3.27837079120333E-04  1.08570202236679E-02
 cg2d: Sum(rhs),rhsMax =   3.28083847567074E-04  1.08579753087785E-02
 cg2d: Sum(rhs),rhsMax =   3.28313728820737E-04  1.08589300604229E-02
 cg2d: Sum(rhs),rhsMax =   3.28518698083390E-04  1.08598844739358E-02
 cg2d: Sum(rhs),rhsMax =   3.28700396621161E-04  1.08608385532204E-02
 cg2d: Sum(rhs),rhsMax =   3.28860297374155E-04  1.08617922941077E-02
 cg2d: Sum(rhs),rhsMax =   3.29000133880706E-04  1.08627457001791E-02
 cg2d: Sum(rhs),rhsMax =   3.29129804974782E-04  1.08636987664193E-02
 cg2d: Sum(rhs),rhsMax =   3.29242527379118E-04  1.08646514956246E-02
 cg2d: Sum(rhs),rhsMax =   3.29340155156293E-04  1.08656038828893E-02
 cg2d: Sum(rhs),rhsMax =   3.29424436024220E-04  1.08665559332418E-02
 cg2d: Sum(rhs),rhsMax =   3.29497344975095E-04  1.08675076380293E-02
 cg2d: Sum(rhs),rhsMax =   3.29560692884522E-04  1.08684590028942E-02
 cg2d: Sum(rhs),rhsMax =   3.29616530365949E-04  1.08694100230638E-02
 cg2d: Sum(rhs),rhsMax =   3.29666712160082E-04  1.08703607001312E-02
 cg2d: Sum(rhs),rhsMax =   3.29713287095169E-04  1.08713110359063E-02
 cg2d: Sum(rhs),rhsMax =   3.29758179229428E-04  1.08722610254450E-02
 cg2d: Sum(rhs),rhsMax =   3.29803402632537E-04  1.08732106711869E-02
 cg2d: Sum(rhs),rhsMax =   3.29850956011183E-04  1.08741599695158E-02
 cg2d: Sum(rhs),rhsMax =   3.29902849377915E-04  1.08751089223538E-02
 cg2d: Sum(rhs),rhsMax =   3.29961062258481E-04  1.08760575267184E-02
 cg2d: Sum(rhs),rhsMax =   3.30027576891413E-04  1.08770057829695E-02
 cg2d: Sum(rhs),rhsMax =   3.30104360405425E-04  1.08779536889797E-02
 cg2d: Sum(rhs),rhsMax =   3.30193378744955E-04  1.08789012450627E-02
 cg2d: Sum(rhs),rhsMax =   3.30296531199101E-04  1.08798484508001E-02
 cg2d: Sum(rhs),rhsMax =   3.30415718402722E-04  1.08807953054237E-02
 cg2d: Sum(rhs),rhsMax =   3.30552759844394E-04  1.08817418082838E-02
 cg2d: Sum(rhs),rhsMax =   3.30700806919276E-04  1.08826879516010E-02
 cg2d: Sum(rhs),rhsMax =   3.30869970126456E-04  1.08836337506301E-02
 cg2d: Sum(rhs),rhsMax =   3.31061992729512E-04  1.08845791894472E-02
 cg2d: Sum(rhs),rhsMax =   3.31278535099641E-04  1.08855242797390E-02
 cg2d: Sum(rhs),rhsMax =   3.31521167386823E-04  1.08864690073166E-02
 cg2d: Sum(rhs),rhsMax =   3.31781770790957E-04  1.08874133791108E-02
 cg2d: Sum(rhs),rhsMax =   3.32070976172079E-04  1.08883573955695E-02
 cg2d: Sum(rhs),rhsMax =   3.32390247863698E-04  1.08893010551292E-02
 cg2d: Sum(rhs),rhsMax =   3.32740828405668E-04  1.08902443572713E-02
 cg2d: Sum(rhs),rhsMax =   3.33112908486807E-04  1.08911872995963E-02
 cg2d: Sum(rhs),rhsMax =   3.33518090633263E-04  1.08921298803593E-02
 cg2d: Sum(rhs),rhsMax =   3.33945567838457E-04  1.08930720960775E-02
 cg2d: Sum(rhs),rhsMax =   3.34318037325048E-04  1.08940139577859E-02
 cg2d: Sum(rhs),rhsMax =   3.34705687294863E-04  1.08949554617191E-02
 cg2d: Sum(rhs),rhsMax =   3.35121012698534E-04  1.08958965957229E-02
 cg2d: Sum(rhs),rhsMax =   3.35564518009902E-04  1.08968373678334E-02
 cg2d: Sum(rhs),rhsMax =   3.36021498477083E-04  1.08977777735906E-02
 cg2d: Sum(rhs),rhsMax =   3.36431322305911E-04  1.08987178027897E-02
 cg2d: Sum(rhs),rhsMax =   3.36863039642629E-04  1.08996574781942E-02
 cg2d: Sum(rhs),rhsMax =   3.37167366087186E-04  1.09005967783205E-02
 cg2d: Sum(rhs),rhsMax =   3.37417983162598E-04  1.09015357423890E-02
 cg2d: Sum(rhs),rhsMax =   3.37611374749282E-04  1.09024743017502E-02
 cg2d: Sum(rhs),rhsMax =   3.37768984314441E-04  1.09034125313644E-02
 cg2d: Sum(rhs),rhsMax =   3.37929788304697E-04  1.09043503681867E-02
 cg2d: Sum(rhs),rhsMax =   3.38093606982847E-04  1.09052878351559E-02
 cg2d: Sum(rhs),rhsMax =   3.38260216664651E-04  1.09062249330152E-02
 cg2d: Sum(rhs),rhsMax =   3.38429564074171E-04  1.09071616575028E-02
 cg2d: Sum(rhs),rhsMax =   3.38601395305836E-04  1.09080980126168E-02
 cg2d: Sum(rhs),rhsMax =   3.38775631039399E-04  1.09090339919697E-02
 cg2d: Sum(rhs),rhsMax =   3.38952058289110E-04  1.09099696010743E-02
 cg2d: Sum(rhs),rhsMax =   3.39130621848560E-04  1.09109048322734E-02
 cg2d: Sum(rhs),rhsMax =   3.39290411940552E-04  1.09118396847120E-02
 cg2d: Sum(rhs),rhsMax =   3.39451802588955E-04  1.09127741679623E-02
 cg2d: Sum(rhs),rhsMax =   3.39614656541375E-04  1.09137082761286E-02
 cg2d: Sum(rhs),rhsMax =   3.39778859339062E-04  1.09146420060805E-02
 cg2d: Sum(rhs),rhsMax =   3.39923847136662E-04  1.09155753443157E-02
 cg2d: Sum(rhs),rhsMax =   3.40069796902832E-04  1.09165083187268E-02
 cg2d: Sum(rhs),rhsMax =   3.40216690935303E-04  1.09174409136046E-02
(PID.TID 0000.0001)      cg2d_init_res =   4.55585700957187E-03
(PID.TID 0000.0001)      cg2d_iters(min,last) =      -1     376
(PID.TID 0000.0001)      cg2d_last_res =   9.31806342818563E-08
(PID.TID 0000.0001) // =======================================================
(PID.TID 0000.0001) // Begin MONITOR dynamic field statistics
(PID.TID 0000.0001) // =======================================================
(PID.TID 0000.0001) %MON time_tsnumber                =                  8208
(PID.TID 0000.0001) %MON time_secondsf                =   9.8496000000000E+06
(PID.TID 0000.0001) %MON dynstat_eta_max              =   9.6482443336471E-02
(PID.TID 0000.0001) %MON dynstat_eta_min              =  -2.2620486112103E-01
(PID.TID 0000.0001) %MON dynstat_eta_mean             =  -1.7684724821783E-08
(PID.TID 0000.0001) %MON dynstat_eta_sd               =   8.5987649621897E-02
(PID.TID 0000.0001) %MON dynstat_eta_del2             =   5.0038861112329E-07
(PID.TID 0000.0001) %MON dynstat_uvel_max             =   7.9838426615561E-02
(PID.TID 0000.0001) %MON dynstat_uvel_min             =  -9.7511886696818E-02
(PID.TID 0000.0001) %MON dynstat_uvel_mean            =  -1.5496886658209E-08
(PID.TID 0000.0001) %MON dynstat_uvel_sd              =   3.4978286482991E-02
(PID.TID 0000.0001) %MON dynstat_uvel_del2            =   8.1360494953378E-07
(PID.TID 0000.0001) %MON dynstat_vvel_max             =   8.9990456147061E-02
(PID.TID 0000.0001) %MON dynstat_vvel_min             =  -7.5621364403857E-02
(PID.TID 0000.0001) %MON dynstat_vvel_mean            =  -2.9987340917185E-07
(PID.TID 0000.0001) %MON dynstat_vvel_sd              =   3.1984835785750E-02
(PID.TID 0000.0001) %MON dynstat_vvel_del2            =   1.0495510989454E-06
(PID.TID 0000.0001) %MON dynstat_wvel_max             =   1.9779789556051E-08
(PID.TID 0000.0001) %MON dynstat_wvel_min             =  -1.7317406856455E-08
(PID.TID 0000.0001) %MON dynstat_wvel_mean            =  -8.7276479108018E-21
(PID.TID 0000.0001) %MON dynstat_wvel_sd              =   7.1006022390085E-09
(PID.TID 0000.0001) %MON dynstat_wvel_del2            =   5.5660541708319E-14
(PID.TID 0000.0001) %MON dynstat_theta_max            =   2.0000000000000E+01
(PID.TID 0000.0001) %MON dynstat_theta_min            =   2.0000000000000E+01
(PID.TID 0000.0001) %MON dynstat_theta_mean           =   1.9999999999999E+01
(PID.TID 0000.0001) %MON dynstat_theta_sd             =   1.1972645097557E-12
(PID.TID 0000.0001) %MON dynstat_theta_del2           =   0.0000000000000E+00
(PID.TID 0000.0001) %MON dynstat_salt_max             =   3.0000000000000E+01
(PID.TID 0000.0001) %MON dynstat_salt_min             =   3.0000000000000E+01
(PID.TID 0000.0001) %MON dynstat_salt_mean            =   2.9999999999998E+01
(PID.TID 0000.0001) %MON dynstat_salt_sd              =   2.1529444893531E-12
(PID.TID 0000.0001) %MON dynstat_salt_del2            =   0.0000000000000E+00
(PID.TID 0000.0001) %MON trAdv_CFL_u_max              =   2.3401598849308E-02
(PID.TID 0000.0001) %MON trAdv_CFL_v_max              =   2.1595759455229E-02
(PID.TID 0000.0001) %MON trAdv_CFL_w_max              =   5.0628662782695E-09
(PID.TID 0000.0001) %MON advcfl_uvel_max              =   2.3402852807236E-02
(PID.TID 0000.0001) %MON advcfl_vvel_max              =   2.1597709475295E-02
(PID.TID 0000.0001) %MON advcfl_wvel_max              =   9.4942989869043E-09
(PID.TID 0000.0001) %MON advcfl_W_hf_max              =   0.0000000000000E+00
(PID.TID 0000.0001) %MON pe_b_mean                    =   7.5649477564397E-06
(PID.TID 0000.0001) %MON ke_max                       =   4.7571171125064E-03
(PID.TID 0000.0001) %MON ke_mean                      =   1.1181989240232E-03
(PID.TID 0000.0001) %MON ke_vol                       =   7.2529629296391E+15
(PID.TID 0000.0001) %MON vort_r_min                   =  -3.4643630675541E-06
(PID.TID 0000.0001) %MON vort_r_max                   =   2.6808859310825E-06
(PID.TID 0000.0001) %MON vort_a_mean                  =   1.0615000000000E-04
(PID.TID 0000.0001) %MON vort_a_sd                    =   3.6019125387305E-06
(PID.TID 0000.0001) %MON vort_p_mean                  =   1.1210870169429E-04
(PID.TID 0000.0001) %MON vort_p_sd                    =   2.1060059804135E-05
(PID.TID 0000.0001) %MON surfExpan_theta_mean         =  -1.7467614116400E-19
(PID.TID 0000.0001) %MON surfExpan_salt_mean          =  -2.6215097094671E-19
(PID.TID 0000.0001) // =======================================================
(PID.TID 0000.0001) // End MONITOR dynamic field statistics
(PID.TID 0000.0001) // =======================================================
 cg2d: Sum(rhs),rhsMax =   3.40364475347760E-04  1.09183731295834E-02
 cg2d: Sum(rhs),rhsMax =   3.40513002413056E-04  1.09193049675226E-02
 cg2d: Sum(rhs),rhsMax =   3.40662409514414E-04  1.09202364195823E-02
 cg2d: Sum(rhs),rhsMax =   3.40812512512289E-04  1.09211674939575E-02
 cg2d: Sum(rhs),rhsMax =   3.40963314294009E-04  1.09220981826489E-02
 cg2d: Sum(rhs),rhsMax =   3.41114793321899E-04  1.09230284924642E-02
 cg2d: Sum(rhs),rhsMax =   3.41266843570037E-04  1.09239584146967E-02
 cg2d: Sum(rhs),rhsMax =   3.41419438078564E-04  1.09248879548903E-02
 cg2d: Sum(rhs),rhsMax =   3.41572591467387E-04  1.09258171095415E-02
 cg2d: Sum(rhs),rhsMax =   3.41726244494914E-04  1.09267458782802E-02
 cg2d: Sum(rhs),rhsMax =   3.41880378684793E-04  1.09276742613340E-02
 cg2d: Sum(rhs),rhsMax =   3.42034905617468E-04  1.09286022585159E-02
 cg2d: Sum(rhs),rhsMax =   3.42189860403019E-04  1.09295298639081E-02
 cg2d: Sum(rhs),rhsMax =   3.42345221496345E-04  1.09304570832913E-02
 cg2d: Sum(rhs),rhsMax =   3.42500927329690E-04  1.09313839131208E-02
 cg2d: Sum(rhs),rhsMax =   3.42656991711947E-04  1.09323103545873E-02
 cg2d: Sum(rhs),rhsMax =   3.42813321567119E-04  1.09332364047203E-02
 cg2d: Sum(rhs),rhsMax =   3.42969981319762E-04  1.09341620642468E-02
 cg2d: Sum(rhs),rhsMax =   3.43126831281853E-04  1.09350873310810E-02
 cg2d: Sum(rhs),rhsMax =   3.43283956913756E-04  1.09360122078560E-02
 cg2d: Sum(rhs),rhsMax =   3.43441308106282E-04  1.09369366905296E-02
 cg2d: Sum(rhs),rhsMax =   3.43598871984754E-04  1.09378607797052E-02
 cg2d: Sum(rhs),rhsMax =   3.43756658458951E-04  1.09387844729683E-02
 cg2d: Sum(rhs),rhsMax =   3.43914545036498E-04  1.09397077708983E-02
 cg2d: Sum(rhs),rhsMax =   3.44072647507307E-04  1.09406306748980E-02
 cg2d: Sum(rhs),rhsMax =   3.44230876701278E-04  1.09415531840186E-02
 cg2d: Sum(rhs),rhsMax =   3.44389225629987E-04  1.09424752939563E-02
 cg2d: Sum(rhs),rhsMax =   3.44547745854889E-04  1.09433970067879E-02
 cg2d: Sum(rhs),rhsMax =   3.44706322364649E-04  1.09443183201663E-02
 cg2d: Sum(rhs),rhsMax =   3.44865012899364E-04  1.09452392371637E-02
 cg2d: Sum(rhs),rhsMax =   3.45023742166934E-04  1.09461597535574E-02
 cg2d: Sum(rhs),rhsMax =   3.45182556362239E-04  1.09470798698613E-02
 cg2d: Sum(rhs),rhsMax =   3.45341404944480E-04  1.09479995840089E-02
 cg2d: Sum(rhs),rhsMax =   3.45500285191556E-04  1.09489188996815E-02
 cg2d: Sum(rhs),rhsMax =   3.45659203107383E-04  1.09498378119526E-02
 cg2d: Sum(rhs),rhsMax =   3.45818142009301E-04  1.09507563214876E-02
 cg2d: Sum(rhs),rhsMax =   3.45977120679694E-04  1.09516744271489E-02
 cg2d: Sum(rhs),rhsMax =   3.46136051486428E-04  1.09525921293776E-02
 cg2d: Sum(rhs),rhsMax =   3.46295015111306E-04  1.09535094262793E-02
 cg2d: Sum(rhs),rhsMax =   3.46453801973644E-04  1.09544263202143E-02
 cg2d: Sum(rhs),rhsMax =   3.46612684107475E-04  1.09553428029488E-02
 cg2d: Sum(rhs),rhsMax =   3.46771487923864E-04  1.09562588848401E-02
 cg2d: Sum(rhs),rhsMax =   3.46910231624836E-04  1.09571745603339E-02
 cg2d: Sum(rhs),rhsMax =   3.47048912353112E-04  1.09580898257070E-02
 cg2d: Sum(rhs),rhsMax =   3.47187549642127E-04  1.09590046816209E-02
 cg2d: Sum(rhs),rhsMax =   3.47326078095150E-04  1.09599191287168E-02
 cg2d: Sum(rhs),rhsMax =   3.47464518961706E-04  1.09608331665153E-02
 cg2d: Sum(rhs),rhsMax =   3.47602860059890E-04  1.09617467939736E-02
 cg2d: Sum(rhs),rhsMax =   3.47741133759665E-04  1.09626600108570E-02
 cg2d: Sum(rhs),rhsMax =   3.47879244781921E-04  1.09635728158658E-02
 cg2d: Sum(rhs),rhsMax =   3.48017283181509E-04  1.09644852097510E-02
 cg2d: Sum(rhs),rhsMax =   3.48155120181028E-04  1.09653971916937E-02
 cg2d: Sum(rhs),rhsMax =   3.48292919325479E-04  1.09663087581957E-02
 cg2d: Sum(rhs),rhsMax =   3.48430550622602E-04  1.09672199102519E-02
 cg2d: Sum(rhs),rhsMax =   3.48568124592526E-04  1.09681306489979E-02
 cg2d: Sum(rhs),rhsMax =   3.48705518099759E-04  1.09690409733533E-02
 cg2d: Sum(rhs),rhsMax =   3.48842803738833E-04  1.09699508817082E-02
 cg2d: Sum(rhs),rhsMax =   3.48979913382341E-04  1.09708603738938E-02
 cg2d: Sum(rhs),rhsMax =   3.49116897335272E-04  1.09717694488225E-02
 cg2d: Sum(rhs),rhsMax =   3.49253646511777E-04  1.09726781059551E-02
 cg2d: Sum(rhs),rhsMax =   3.49390305617260E-04  1.09735863457730E-02
 cg2d: Sum(rhs),rhsMax =   3.49526778357489E-04  1.09744941672739E-02
 cg2d: Sum(rhs),rhsMax =   3.49663132645952E-04  1.09754015676703E-02
 cg2d: Sum(rhs),rhsMax =   3.49799274063414E-04  1.09763085480257E-02
 cg2d: Sum(rhs),rhsMax =   3.49935269968389E-04  1.09772151082552E-02
 cg2d: Sum(rhs),rhsMax =   3.50071082802508E-04  1.09781212467773E-02
 cg2d: Sum(rhs),rhsMax =   3.50206746767086E-04  1.09790269652322E-02
 cg2d: Sum(rhs),rhsMax =   3.50342156188250E-04  1.09799322598078E-02
 cg2d: Sum(rhs),rhsMax =   3.50477446970462E-04  1.09808371340453E-02
 cg2d: Sum(rhs),rhsMax =   3.50612448168695E-04  1.09817415848542E-02
 cg2d: Sum(rhs),rhsMax =   3.50747343969308E-04  1.09826456104329E-02
 cg2d: Sum(rhs),rhsMax =   3.50881980903340E-04  1.09835492114192E-02
(PID.TID 0000.0001)      cg2d_init_res =   4.51313294378095E-03
(PID.TID 0000.0001)      cg2d_iters(min,last) =      -1     377
(PID.TID 0000.0001)      cg2d_last_res =   9.31574790449291E-08
(PID.TID 0000.0001) // =======================================================
(PID.TID 0000.0001) // Begin MONITOR dynamic field statistics
(PID.TID 0000.0001) // =======================================================
(PID.TID 0000.0001) %MON time_tsnumber                =                  8280
(PID.TID 0000.0001) %MON time_secondsf                =   9.9360000000000E+06
(PID.TID 0000.0001) %MON dynstat_eta_max              =   9.6591168171062E-02
(PID.TID 0000.0001) %MON dynstat_eta_min              =  -2.2761438758282E-01
(PID.TID 0000.0001) %MON dynstat_eta_mean             =  -1.8348563137235E-08
(PID.TID 0000.0001) %MON dynstat_eta_sd               =   8.6464684639589E-02
(PID.TID 0000.0001) %MON dynstat_eta_del2             =   5.0313150700170E-07
(PID.TID 0000.0001) %MON dynstat_uvel_max             =   8.0688488314999E-02
(PID.TID 0000.0001) %MON dynstat_uvel_min             =  -9.7885878661690E-02
(PID.TID 0000.0001) %MON dynstat_uvel_mean            =  -5.3396248283643E-08
(PID.TID 0000.0001) %MON dynstat_uvel_sd              =   3.5233178289750E-02
(PID.TID 0000.0001) %MON dynstat_uvel_del2            =   8.1837326897590E-07
(PID.TID 0000.0001) %MON dynstat_vvel_max             =   9.0585492580549E-02
(PID.TID 0000.0001) %MON dynstat_vvel_min             =  -7.6029068863519E-02
(PID.TID 0000.0001) %MON dynstat_vvel_mean            =  -2.8871733586763E-07
(PID.TID 0000.0001) %MON dynstat_vvel_sd              =   3.2105201859351E-02
(PID.TID 0000.0001) %MON dynstat_vvel_del2            =   1.0546083503050E-06
(PID.TID 0000.0001) %MON dynstat_wvel_max             =   1.8721057124203E-08
(PID.TID 0000.0001) %MON dynstat_wvel_min             =  -1.7640457726084E-08
(PID.TID 0000.0001) %MON dynstat_wvel_mean            =   1.4257143044971E-21
(PID.TID 0000.0001) %MON dynstat_wvel_sd              =   7.0325665098941E-09
(PID.TID 0000.0001) %MON dynstat_wvel_del2            =   5.5458543836463E-14
(PID.TID 0000.0001) %MON dynstat_theta_max            =   2.0000000000000E+01
(PID.TID 0000.0001) %MON dynstat_theta_min            =   2.0000000000000E+01
(PID.TID 0000.0001) %MON dynstat_theta_mean           =   1.9999999999999E+01
(PID.TID 0000.0001) %MON dynstat_theta_sd             =   1.1972645097557E-12
(PID.TID 0000.0001) %MON dynstat_theta_del2           =   0.0000000000000E+00
(PID.TID 0000.0001) %MON dynstat_salt_max             =   3.0000000000000E+01
(PID.TID 0000.0001) %MON dynstat_salt_min             =   3.0000000000000E+01
(PID.TID 0000.0001) %MON dynstat_salt_mean            =   2.9999999999998E+01
(PID.TID 0000.0001) %MON dynstat_salt_sd              =   2.1529444893531E-12
(PID.TID 0000.0001) %MON dynstat_salt_del2            =   0.0000000000000E+00
(PID.TID 0000.0001) %MON trAdv_CFL_u_max              =   2.3491382910598E-02
(PID.TID 0000.0001) %MON trAdv_CFL_v_max              =   2.1738510878903E-02
(PID.TID 0000.0001) %MON trAdv_CFL_w_max              =   4.7910754301233E-09
(PID.TID 0000.0001) %MON advcfl_uvel_max              =   2.3492610878806E-02
(PID.TID 0000.0001) %MON advcfl_vvel_max              =   2.1740518219332E-02
(PID.TID 0000.0001) %MON advcfl_wvel_max              =   8.9861074196175E-09
(PID.TID 0000.0001) %MON advcfl_W_hf_max              =   0.0000000000000E+00
(PID.TID 0000.0001) %MON pe_b_mean                    =   7.6491169399915E-06
(PID.TID 0000.0001) %MON ke_max                       =   4.7937599133422E-03
(PID.TID 0000.0001) %MON ke_mean                      =   1.1309465791574E-03
(PID.TID 0000.0001) %MON ke_vol                       =   7.2529629296391E+15
(PID.TID 0000.0001) %MON vort_r_min                   =  -3.4858309735690E-06
(PID.TID 0000.0001) %MON vort_r_max                   =   2.6869548135297E-06
(PID.TID 0000.0001) %MON vort_a_mean                  =   1.0615000000000E-04
(PID.TID 0000.0001) %MON vort_a_sd                    =   3.6023295251453E-06
(PID.TID 0000.0001) %MON vort_p_mean                  =   1.1210870169429E-04
(PID.TID 0000.0001) %MON vort_p_sd                    =   2.1060085917716E-05
(PID.TID 0000.0001) %MON surfExpan_theta_mean         =   2.7982853363811E-20
(PID.TID 0000.0001) %MON surfExpan_salt_mean          =   4.2199447276733E-20
(PID.TID 0000.0001) // =======================================================
(PID.TID 0000.0001) // End MONITOR dynamic field statistics
(PID.TID 0000.0001) // =======================================================
 cg2d: Sum(rhs),rhsMax =   3.51016476209583E-04  1.09844523859388E-02
 cg2d: Sum(rhs),rhsMax =   3.51150730000140E-04  1.09853551349949E-02
 cg2d: Sum(rhs),rhsMax =   3.51284770662905E-04  1.09862574580622E-02
 cg2d: Sum(rhs),rhsMax =   3.51418642178001E-04  1.09871593543488E-02
 cg2d: Sum(rhs),rhsMax =   3.51552289446402E-04  1.09880608236305E-02
 cg2d: Sum(rhs),rhsMax =   3.51685715517866E-04  1.09889618645468E-02
 cg2d: Sum(rhs),rhsMax =   3.51818939460029E-04  1.09898624774062E-02
 cg2d: Sum(rhs),rhsMax =   3.51951926970309E-04  1.09907626607421E-02
 cg2d: Sum(rhs),rhsMax =   3.52084711183859E-04  1.09916624148063E-02
 cg2d: Sum(rhs),rhsMax =   3.52217223007888E-04  1.09925617385191E-02
 cg2d: Sum(rhs),rhsMax =   3.52349551053930E-04  1.09934606306227E-02
 cg2d: Sum(rhs),rhsMax =   3.52481499017973E-04  1.09943590909427E-02
 cg2d: Sum(rhs),rhsMax =   3.52613324953047E-04  1.09952571204500E-02
 cg2d: Sum(rhs),rhsMax =   3.52744892613176E-04  1.09961547174367E-02
 cg2d: Sum(rhs),rhsMax =   3.52876266093278E-04  1.09970518801477E-02
 cg2d: Sum(rhs),rhsMax =   3.53007378349656E-04  1.09979486096362E-02
 cg2d: Sum(rhs),rhsMax =   3.53138282444992E-04  1.09988449043280E-02
 cg2d: Sum(rhs),rhsMax =   3.53268909031272E-04  1.09997407640755E-02
 cg2d: Sum(rhs),rhsMax =   3.53399300731265E-04  1.10006361888377E-02
 cg2d: Sum(rhs),rhsMax =   3.53529354381980E-04  1.10015311764786E-02
 cg2d: Sum(rhs),rhsMax =   3.53659224999794E-04  1.10024257304084E-02
 cg2d: Sum(rhs),rhsMax =   3.53788819427424E-04  1.10033198476203E-02
 cg2d: Sum(rhs),rhsMax =   3.53918175139186E-04  1.10042135252712E-02
 cg2d: Sum(rhs),rhsMax =   3.54047255609533E-04  1.10051067655055E-02
 cg2d: Sum(rhs),rhsMax =   3.54176104463262E-04  1.10059995670733E-02
 cg2d: Sum(rhs),rhsMax =   3.54304642336895E-04  1.10068919292155E-02
 cg2d: Sum(rhs),rhsMax =   3.54432957955595E-04  1.10077838517267E-02
 cg2d: Sum(rhs),rhsMax =   3.54561002098162E-04  1.10086753342739E-02
 cg2d: Sum(rhs),rhsMax =   3.54688808909849E-04  1.10095663765400E-02
 cg2d: Sum(rhs),rhsMax =   3.54816277361936E-04  1.10104569771918E-02
 cg2d: Sum(rhs),rhsMax =   3.54943538423176E-04  1.10113471363737E-02
 cg2d: Sum(rhs),rhsMax =   3.55070427050928E-04  1.10122368529816E-02
 cg2d: Sum(rhs),rhsMax =   3.55197115138969E-04  1.10131261278224E-02
 cg2d: Sum(rhs),rhsMax =   3.55323484292017E-04  1.10140149588007E-02
 cg2d: Sum(rhs),rhsMax =   3.55449614938923E-04  1.10149033446313E-02
 cg2d: Sum(rhs),rhsMax =   3.55575440474262E-04  1.10157912863504E-02
 cg2d: Sum(rhs),rhsMax =   3.55700993918989E-04  1.10166787830151E-02
 cg2d: Sum(rhs),rhsMax =   3.55826265972760E-04  1.10175658349330E-02
 cg2d: Sum(rhs),rhsMax =   3.55951277139745E-04  1.10184524404440E-02
 cg2d: Sum(rhs),rhsMax =   3.56075960511675E-04  1.10193386006557E-02
 cg2d: Sum(rhs),rhsMax =   3.56200330430169E-04  1.10202243133947E-02
 cg2d: Sum(rhs),rhsMax =   3.56324485324012E-04  1.10211095793335E-02
 cg2d: Sum(rhs),rhsMax =   3.56467785761478E-04  1.10219943908751E-02
 cg2d: Sum(rhs),rhsMax =   3.56610691365417E-04  1.10228787620430E-02
 cg2d: Sum(rhs),rhsMax =   3.56753396543903E-04  1.10237626815207E-02
 cg2d: Sum(rhs),rhsMax =   3.56895750721746E-04  1.10246461533644E-02
 cg2d: Sum(rhs),rhsMax =   3.57037806745883E-04  1.10255291725436E-02
 cg2d: Sum(rhs),rhsMax =   3.57179544037235E-04  1.10264117438889E-02
 cg2d: Sum(rhs),rhsMax =   3.57320947672653E-04  1.10272938617345E-02
 cg2d: Sum(rhs),rhsMax =   3.57462046990054E-04  1.10281755303696E-02
 cg2d: Sum(rhs),rhsMax =   3.57602758260812E-04  1.10290567451191E-02
 cg2d: Sum(rhs),rhsMax =   3.57743118418080E-04  1.10299375090247E-02
 cg2d: Sum(rhs),rhsMax =   3.57883250603900E-04  1.10308178166816E-02
 cg2d: Sum(rhs),rhsMax =   3.58022993185481E-04  1.10316976764185E-02
 cg2d: Sum(rhs),rhsMax =   3.58162437584117E-04  1.10325770770555E-02
 cg2d: Sum(rhs),rhsMax =   3.58301525228720E-04  1.10334560275326E-02
 cg2d: Sum(rhs),rhsMax =   3.58440286603326E-04  1.10343345203292E-02
 cg2d: Sum(rhs),rhsMax =   3.58578771053187E-04  1.10352125610884E-02
 cg2d: Sum(rhs),rhsMax =   3.58716854955705E-04  1.10360901414281E-02
 cg2d: Sum(rhs),rhsMax =   3.58854651323371E-04  1.10369672700743E-02
 cg2d: Sum(rhs),rhsMax =   3.58992047125641E-04  1.10378439375695E-02
 cg2d: Sum(rhs),rhsMax =   3.59129155607110E-04  1.10387201522378E-02
 cg2d: Sum(rhs),rhsMax =   3.59265829654889E-04  1.10395959071098E-02
 cg2d: Sum(rhs),rhsMax =   3.59402233085679E-04  1.10404712019268E-02
 cg2d: Sum(rhs),rhsMax =   3.59538295502081E-04  1.10413460397377E-02
 cg2d: Sum(rhs),rhsMax =   3.59674001354685E-04  1.10422204193689E-02
 cg2d: Sum(rhs),rhsMax =   3.59809384319367E-04  1.10430943390946E-02
 cg2d: Sum(rhs),rhsMax =   3.59944408950666E-04  1.10439677984738E-02
 cg2d: Sum(rhs),rhsMax =   3.60079096379487E-04  1.10448407976510E-02
 cg2d: Sum(rhs),rhsMax =   3.60213409347457E-04  1.10457133353561E-02
 cg2d: Sum(rhs),rhsMax =   3.60347315205079E-04  1.10465854125999E-02
 cg2d: Sum(rhs),rhsMax =   3.60480946474303E-04  1.10474570288456E-02
(PID.TID 0000.0001)      cg2d_init_res =   4.46667156385989E-03
(PID.TID 0000.0001)      cg2d_iters(min,last) =      -1     376
(PID.TID 0000.0001)      cg2d_last_res =   9.91843273725243E-08
(PID.TID 0000.0001) // =======================================================
(PID.TID 0000.0001) // Begin MONITOR dynamic field statistics
(PID.TID 0000.0001) // =======================================================
(PID.TID 0000.0001) %MON time_tsnumber                =                  8352
(PID.TID 0000.0001) %MON time_secondsf                =   1.0022400000000E+07
(PID.TID 0000.0001) %MON dynstat_eta_max              =   9.6789383982486E-02
(PID.TID 0000.0001) %MON dynstat_eta_min              =  -2.2903762952540E-01
(PID.TID 0000.0001) %MON dynstat_eta_mean             =  -1.8959877921982E-08
(PID.TID 0000.0001) %MON dynstat_eta_sd               =   8.6939483274849E-02
(PID.TID 0000.0001) %MON dynstat_eta_del2             =   5.0591339309723E-07
(PID.TID 0000.0001) %MON dynstat_uvel_max             =   8.1564638495018E-02
(PID.TID 0000.0001) %MON dynstat_uvel_min             =  -9.8273653624449E-02
(PID.TID 0000.0001) %MON dynstat_uvel_mean            =  -8.8723924196460E-08
(PID.TID 0000.0001) %MON dynstat_uvel_sd              =   3.5485039503913E-02
(PID.TID 0000.0001) %MON dynstat_uvel_del2            =   8.2270971001295E-07
(PID.TID 0000.0001) %MON dynstat_vvel_max             =   9.1195464875268E-02
(PID.TID 0000.0001) %MON dynstat_vvel_min             =  -7.6411717272485E-02
(PID.TID 0000.0001) %MON dynstat_vvel_mean            =  -2.7135907666564E-07
(PID.TID 0000.0001) %MON dynstat_vvel_sd              =   3.2229677084577E-02
(PID.TID 0000.0001) %MON dynstat_vvel_del2            =   1.0605600278486E-06
(PID.TID 0000.0001) %MON dynstat_wvel_max             =   1.7470058224862E-08
(PID.TID 0000.0001) %MON dynstat_wvel_min             =  -1.7936901319772E-08
(PID.TID 0000.0001) %MON dynstat_wvel_mean            =  -4.8784032089999E-21
(PID.TID 0000.0001) %MON dynstat_wvel_sd              =   6.9671175885926E-09
(PID.TID 0000.0001) %MON dynstat_wvel_del2            =   5.5313130262525E-14
(PID.TID 0000.0001) %MON dynstat_theta_max            =   2.0000000000000E+01
(PID.TID 0000.0001) %MON dynstat_theta_min            =   2.0000000000000E+01
(PID.TID 0000.0001) %MON dynstat_theta_mean           =   1.9999999999999E+01
(PID.TID 0000.0001) %MON dynstat_theta_sd             =   1.1972645097557E-12
(PID.TID 0000.0001) %MON dynstat_theta_del2           =   0.0000000000000E+00
(PID.TID 0000.0001) %MON dynstat_salt_max             =   3.0000000000000E+01
(PID.TID 0000.0001) %MON dynstat_salt_min             =   3.0000000000000E+01
(PID.TID 0000.0001) %MON dynstat_salt_mean            =   2.9999999999998E+01
(PID.TID 0000.0001) %MON dynstat_salt_sd              =   2.1529444893531E-12
(PID.TID 0000.0001) %MON dynstat_salt_del2            =   0.0000000000000E+00
(PID.TID 0000.0001) %MON trAdv_CFL_u_max              =   2.3584379089087E-02
(PID.TID 0000.0001) %MON trAdv_CFL_v_max              =   2.1884851188182E-02
(PID.TID 0000.0001) %MON trAdv_CFL_w_max              =   4.4702383293679E-09
(PID.TID 0000.0001) %MON advcfl_uvel_max              =   2.3585676869868E-02
(PID.TID 0000.0001) %MON advcfl_vvel_max              =   2.1886911570064E-02
(PID.TID 0000.0001) %MON advcfl_wvel_max              =   8.6097126334906E-09
(PID.TID 0000.0001) %MON advcfl_W_hf_max              =   0.0000000000000E+00
(PID.TID 0000.0001) %MON pe_b_mean                    =   7.7333539165462E-06
(PID.TID 0000.0001) %MON ke_max                       =   4.8306201539094E-03
(PID.TID 0000.0001) %MON ke_mean                      =   1.1437981053359E-03
(PID.TID 0000.0001) %MON ke_vol                       =   7.2529629296391E+15
(PID.TID 0000.0001) %MON vort_r_min                   =  -3.5066251020579E-06
(PID.TID 0000.0001) %MON vort_r_max                   =   2.6969443044817E-06
(PID.TID 0000.0001) %MON vort_a_mean                  =   1.0615000000000E-04
(PID.TID 0000.0001) %MON vort_a_sd                    =   3.6027552416998E-06
(PID.TID 0000.0001) %MON vort_p_mean                  =   1.1210870169429E-04
(PID.TID 0000.0001) %MON vort_p_sd                    =   2.1060125708451E-05
(PID.TID 0000.0001) %MON surfExpan_theta_mean         =  -9.7523378243509E-20
(PID.TID 0000.0001) %MON surfExpan_salt_mean          =  -1.4639143981535E-19
(PID.TID 0000.0001) // =======================================================
(PID.TID 0000.0001) // End MONITOR dynamic field statistics
(PID.TID 0000.0001) // =======================================================
 cg2d: Sum(rhs),rhsMax =   3.60614191003023E-04  1.10483281790609E-02
 cg2d: Sum(rhs),rhsMax =   3.60747127981956E-04  1.10491988711395E-02
 cg2d: Sum(rhs),rhsMax =   3.60879703265453E-04  1.10500690974753E-02
 cg2d: Sum(rhs),rhsMax =   3.61011941867483E-04  1.10509388616873E-02
 cg2d: Sum(rhs),rhsMax =   3.61143819743288E-04  1.10518081586122E-02
 cg2d: Sum(rhs),rhsMax =   3.61275334238033E-04  1.10526769959877E-02
 cg2d: Sum(rhs),rhsMax =   3.61406491361869E-04  1.10535453645775E-02
 cg2d: Sum(rhs),rhsMax =   3.61537279366560E-04  1.10544132709326E-02
 cg2d: Sum(rhs),rhsMax =   3.61667768735993E-04  1.10552807079480E-02
 cg2d: Sum(rhs),rhsMax =   3.61797848575179E-04  1.10561476823520E-02
 cg2d: Sum(rhs),rhsMax =   3.61927576337615E-04  1.10570141873021E-02
 cg2d: Sum(rhs),rhsMax =   3.62056957121163E-04  1.10578802278769E-02
 cg2d: Sum(rhs),rhsMax =   3.62186013361236E-04  1.10587457980980E-02
 cg2d: Sum(rhs),rhsMax =   3.62314712412987E-04  1.10596109032306E-02
 cg2d: Sum(rhs),rhsMax =   3.62443031015087E-04  1.10604755382573E-02
 cg2d: Sum(rhs),rhsMax =   3.62570988891120E-04  1.10613397047739E-02
 cg2d: Sum(rhs),rhsMax =   3.62698613935598E-04  1.10622034014467E-02
 cg2d: Sum(rhs),rhsMax =   3.62825869774331E-04  1.10630666311611E-02
 cg2d: Sum(rhs),rhsMax =   3.62952739989224E-04  1.10639293890956E-02
 cg2d: Sum(rhs),rhsMax =   3.63079270591858E-04  1.10647916758348E-02
 cg2d: Sum(rhs),rhsMax =   3.63205455160269E-04  1.10656534925774E-02
 cg2d: Sum(rhs),rhsMax =   3.63331288276229E-04  1.10665148397586E-02
 cg2d: Sum(rhs),rhsMax =   3.63456804107393E-04  1.10673757135980E-02
 cg2d: Sum(rhs),rhsMax =   3.63581906725112E-04  1.10682361172296E-02
 cg2d: Sum(rhs),rhsMax =   3.63706681396360E-04  1.10690960456562E-02
 cg2d: Sum(rhs),rhsMax =   3.63831066992783E-04  1.10699555032953E-02
 cg2d: Sum(rhs),rhsMax =   3.63955100807110E-04  1.10708144868408E-02
 cg2d: Sum(rhs),rhsMax =   3.64078790989519E-04  1.10716729985305E-02
 cg2d: Sum(rhs),rhsMax =   3.64202123049998E-04  1.10725310332185E-02
 cg2d: Sum(rhs),rhsMax =   3.64325112913276E-04  1.10733885959866E-02
 cg2d: Sum(rhs),rhsMax =   3.64447718207261E-04  1.10742456825447E-02
 cg2d: Sum(rhs),rhsMax =   3.64569970790055E-04  1.10751022957223E-02
 cg2d: Sum(rhs),rhsMax =   3.64691864594055E-04  1.10759584316024E-02
 cg2d: Sum(rhs),rhsMax =   3.64813353950265E-04  1.10768140927822E-02
 cg2d: Sum(rhs),rhsMax =   3.64934544136416E-04  1.10776692785706E-02
 cg2d: Sum(rhs),rhsMax =   3.65055353540002E-04  1.10785239867005E-02
 cg2d: Sum(rhs),rhsMax =   3.65175754992219E-04  1.10793782171791E-02
 cg2d: Sum(rhs),rhsMax =   3.65295854312025E-04  1.10802319700874E-02
 cg2d: Sum(rhs),rhsMax =   3.65415567596734E-04  1.10810852452349E-02
 cg2d: Sum(rhs),rhsMax =   3.65534945186869E-04  1.10819380444973E-02
 cg2d: Sum(rhs),rhsMax =   3.65654000881441E-04  1.10827903631298E-02
 cg2d: Sum(rhs),rhsMax =   3.65772637395205E-04  1.10836422052936E-02
 cg2d: Sum(rhs),rhsMax =   3.65890967969755E-04  1.10844935648678E-02
 cg2d: Sum(rhs),rhsMax =   3.66008933048648E-04  1.10853444467316E-02
 cg2d: Sum(rhs),rhsMax =   3.66126545790057E-04  1.10861948481095E-02
 cg2d: Sum(rhs),rhsMax =   3.66243793795190E-04  1.10870447703555E-02
 cg2d: Sum(rhs),rhsMax =   3.66360710769514E-04  1.10878942109347E-02
 cg2d: Sum(rhs),rhsMax =   3.66477263969295E-04  1.10887431714186E-02
 cg2d: Sum(rhs),rhsMax =   3.66593456591955E-04  1.10895916498742E-02
 cg2d: Sum(rhs),rhsMax =   3.66709297893128E-04  1.10904396471733E-02
 cg2d: Sum(rhs),rhsMax =   3.66824746148169E-04  1.10912871631201E-02
 cg2d: Sum(rhs),rhsMax =   3.66939874730536E-04  1.10921341940652E-02
 cg2d: Sum(rhs),rhsMax =   3.67054654987176E-04  1.10929807448755E-02
 cg2d: Sum(rhs),rhsMax =   3.67169091243557E-04  1.10938268108738E-02
 cg2d: Sum(rhs),rhsMax =   3.67283204733112E-04  1.10946723955173E-02
 cg2d: Sum(rhs),rhsMax =   3.67396951709521E-04  1.10955174943966E-02
 cg2d: Sum(rhs),rhsMax =   3.67510330717979E-04  1.10963621111154E-02
 cg2d: Sum(rhs),rhsMax =   3.67623358227525E-04  1.10972062421852E-02
 cg2d: Sum(rhs),rhsMax =   3.67736028807715E-04  1.10980498888052E-02
 cg2d: Sum(rhs),rhsMax =   3.67848387278170E-04  1.10988930508706E-02
 cg2d: Sum(rhs),rhsMax =   3.67960309831128E-04  1.10997357286078E-02
 cg2d: Sum(rhs),rhsMax =   3.68071912603900E-04  1.11005779194955E-02
 cg2d: Sum(rhs),rhsMax =   3.68183231706423E-04  1.11014196235525E-02
 cg2d: Sum(rhs),rhsMax =   3.68294200600442E-04  1.11022608428133E-02
 cg2d: Sum(rhs),rhsMax =   3.68404836669700E-04  1.11031015742204E-02
 cg2d: Sum(rhs),rhsMax =   3.68515091086681E-04  1.11039418206701E-02
 cg2d: Sum(rhs),rhsMax =   3.68625025286723E-04  1.11047815776368E-02
 cg2d: Sum(rhs),rhsMax =   3.68734615647008E-04  1.11056208471733E-02
 cg2d: Sum(rhs),rhsMax =   3.68843864613699E-04  1.11064596306341E-02
 cg2d: Sum(rhs),rhsMax =   3.68952800928000E-04  1.11072979251900E-02
 cg2d: Sum(rhs),rhsMax =   3.69061373733378E-04  1.11081357315156E-02
 cg2d: Sum(rhs),rhsMax =   3.69169627359452E-04  1.11089730486436E-02
(PID.TID 0000.0001)      cg2d_init_res =   4.41709571722067E-03
(PID.TID 0000.0001)      cg2d_iters(min,last) =      -1     376
(PID.TID 0000.0001)      cg2d_last_res =   9.67590331763028E-08
(PID.TID 0000.0001) // =======================================================
(PID.TID 0000.0001) // Begin MONITOR dynamic field statistics
(PID.TID 0000.0001) // =======================================================
(PID.TID 0000.0001) %MON time_tsnumber                =                  8424
(PID.TID 0000.0001) %MON time_secondsf                =   1.0108800000000E+07
(PID.TID 0000.0001) %MON dynstat_eta_max              =   9.7078608929047E-02
(PID.TID 0000.0001) %MON dynstat_eta_min              =  -2.3047106316378E-01
(PID.TID 0000.0001) %MON dynstat_eta_mean             =  -1.9523410028365E-08
(PID.TID 0000.0001) %MON dynstat_eta_sd               =   8.7410653192492E-02
(PID.TID 0000.0001) %MON dynstat_eta_del2             =   5.0872735199924E-07
(PID.TID 0000.0001) %MON dynstat_uvel_max             =   8.2450935481915E-02
(PID.TID 0000.0001) %MON dynstat_uvel_min             =  -9.8658784469005E-02
(PID.TID 0000.0001) %MON dynstat_uvel_mean            =  -1.1999289991165E-07
(PID.TID 0000.0001) %MON dynstat_uvel_sd              =   3.5731114733248E-02
(PID.TID 0000.0001) %MON dynstat_uvel_del2            =   8.2654188453429E-07
(PID.TID 0000.0001) %MON dynstat_vvel_max             =   9.1823002063850E-02
(PID.TID 0000.0001) %MON dynstat_vvel_min             =  -7.6775071139794E-02
(PID.TID 0000.0001) %MON dynstat_vvel_mean            =  -2.4841646689787E-07
(PID.TID 0000.0001) %MON dynstat_vvel_sd              =   3.2360793109438E-02
(PID.TID 0000.0001) %MON dynstat_vvel_del2            =   1.0673089424541E-06
(PID.TID 0000.0001) %MON dynstat_wvel_max             =   1.6055652354844E-08
(PID.TID 0000.0001) %MON dynstat_wvel_min             =  -1.8209053785540E-08
(PID.TID 0000.0001) %MON dynstat_wvel_mean            =  -1.8801918698824E-21
(PID.TID 0000.0001) %MON dynstat_wvel_sd              =   6.9049238068272E-09
(PID.TID 0000.0001) %MON dynstat_wvel_del2            =   5.4964210432837E-14
(PID.TID 0000.0001) %MON dynstat_theta_max            =   2.0000000000000E+01
(PID.TID 0000.0001) %MON dynstat_theta_min            =   2.0000000000000E+01
(PID.TID 0000.0001) %MON dynstat_theta_mean           =   1.9999999999999E+01
(PID.TID 0000.0001) %MON dynstat_theta_sd             =   1.1972645097557E-12
(PID.TID 0000.0001) %MON dynstat_theta_del2           =   0.0000000000000E+00
(PID.TID 0000.0001) %MON dynstat_salt_max             =   3.0000000000000E+01
(PID.TID 0000.0001) %MON dynstat_salt_min             =   3.0000000000000E+01
(PID.TID 0000.0001) %MON dynstat_salt_mean            =   2.9999999999998E+01
(PID.TID 0000.0001) %MON dynstat_salt_sd              =   2.1529444893531E-12
(PID.TID 0000.0001) %MON dynstat_salt_del2            =   0.0000000000000E+00
(PID.TID 0000.0001) %MON trAdv_CFL_u_max              =   2.3676838141733E-02
(PID.TID 0000.0001) %MON trAdv_CFL_v_max              =   2.2035396708495E-02
(PID.TID 0000.0001) %MON trAdv_CFL_w_max              =   4.1062954610137E-09
(PID.TID 0000.0001) %MON advcfl_uvel_max              =   2.3678108272561E-02
(PID.TID 0000.0001) %MON advcfl_vvel_max              =   2.2037520495324E-02
(PID.TID 0000.0001) %MON advcfl_wvel_max              =   8.7403458170593E-09
(PID.TID 0000.0001) %MON advcfl_W_hf_max              =   0.0000000000000E+00
(PID.TID 0000.0001) %MON pe_b_mean                    =   7.8174031241052E-06
(PID.TID 0000.0001) %MON ke_max                       =   4.8686114645903E-03
(PID.TID 0000.0001) %MON ke_mean                      =   1.1567362908827E-03
(PID.TID 0000.0001) %MON ke_vol                       =   7.2529629296391E+15
(PID.TID 0000.0001) %MON vort_r_min                   =  -3.5266706749500E-06
(PID.TID 0000.0001) %MON vort_r_max                   =   2.7105685237769E-06
(PID.TID 0000.0001) %MON vort_a_mean                  =   1.0615000000000E-04
(PID.TID 0000.0001) %MON vort_a_sd                    =   3.6031877986197E-06
(PID.TID 0000.0001) %MON vort_p_mean                  =   1.1210870169429E-04
(PID.TID 0000.0001) %MON vort_p_sd                    =   2.1060181144783E-05
(PID.TID 0000.0001) %MON surfExpan_theta_mean         =  -3.8142543669239E-20
(PID.TID 0000.0001) %MON surfExpan_salt_mean          =  -5.7241717773626E-20
(PID.TID 0000.0001) // =======================================================
(PID.TID 0000.0001) // End MONITOR dynamic field statistics
(PID.TID 0000.0001) // =======================================================
 cg2d: Sum(rhs),rhsMax =   3.69277551437024E-04  1.11098098776037E-02
 cg2d: Sum(rhs),rhsMax =   3.69385062039989E-04  1.11106462150984E-02
 cg2d: Sum(rhs),rhsMax =   3.69492289196029E-04  1.11114820679758E-02
 cg2d: Sum(rhs),rhsMax =   3.69599180125139E-04  1.11123174266922E-02
 cg2d: Sum(rhs),rhsMax =   3.69705762246885E-04  1.11131522981374E-02
 cg2d: Sum(rhs),rhsMax =   3.69811947951470E-04  1.11139866752460E-02
 cg2d: Sum(rhs),rhsMax =   3.69917849991928E-04  1.11148205639798E-02
 cg2d: Sum(rhs),rhsMax =   3.70023436021476E-04  1.11156539619712E-02
 cg2d: Sum(rhs),rhsMax =   3.70128671891040E-04  1.11164868688824E-02
 cg2d: Sum(rhs),rhsMax =   3.70233593125623E-04  1.11173192810779E-02
 cg2d: Sum(rhs),rhsMax =   3.70338198134338E-04  1.11181512059108E-02
 cg2d: Sum(rhs),rhsMax =   3.70442449067946E-04  1.11189826380724E-02
 cg2d: Sum(rhs),rhsMax =   3.70546365820072E-04  1.11198135759983E-02
 cg2d: Sum(rhs),rhsMax =   3.70649982314461E-04  1.11206440200400E-02
 cg2d: Sum(rhs),rhsMax =   3.70753262538149E-04  1.11214739732629E-02
 cg2d: Sum(rhs),rhsMax =   3.70856241710420E-04  1.11223034331063E-02
 cg2d: Sum(rhs),rhsMax =   3.70958885131422E-04  1.11231324008978E-02
 cg2d: Sum(rhs),rhsMax =   3.71061241708086E-04  1.11239608723227E-02
 cg2d: Sum(rhs),rhsMax =   3.71163263593937E-04  1.11247888518115E-02
 cg2d: Sum(rhs),rhsMax =   3.71264980911102E-04  1.11256163361739E-02
 cg2d: Sum(rhs),rhsMax =   3.71366338049565E-04  1.11264433296846E-02
 cg2d: Sum(rhs),rhsMax =   3.71467386259360E-04  1.11272698220947E-02
 cg2d: Sum(rhs),rhsMax =   3.71568150878720E-04  1.11280958236046E-02
 cg2d: Sum(rhs),rhsMax =   3.71668581524669E-04  1.11289213276036E-02
 cg2d: Sum(rhs),rhsMax =   3.71768749704892E-04  1.11297463394434E-02
 cg2d: Sum(rhs),rhsMax =   3.71868540611373E-04  1.11305708544824E-02
 cg2d: Sum(rhs),rhsMax =   3.71968067441242E-04  1.11313948725063E-02
 cg2d: Sum(rhs),rhsMax =   3.72067280616627E-04  1.11322183939960E-02
 cg2d: Sum(rhs),rhsMax =   3.72166192503789E-04  1.11330414214983E-02
 cg2d: Sum(rhs),rhsMax =   3.72264801951483E-04  1.11338639511722E-02
 cg2d: Sum(rhs),rhsMax =   3.72363125880791E-04  1.11346859860248E-02
 cg2d: Sum(rhs),rhsMax =   3.72461147044962E-04  1.11355075210560E-02
 cg2d: Sum(rhs),rhsMax =   3.72558865639305E-04  1.11363285610716E-02
 cg2d: Sum(rhs),rhsMax =   3.72656272052643E-04  1.11371491012965E-02
 cg2d: Sum(rhs),rhsMax =   3.72753381781150E-04  1.11379691464936E-02
 cg2d: Sum(rhs),rhsMax =   3.72850184602451E-04  1.11387886907264E-02
 cg2d: Sum(rhs),rhsMax =   3.72946696776235E-04  1.11396077399644E-02
 cg2d: Sum(rhs),rhsMax =   3.73042931889445E-04  1.11404262883692E-02
 cg2d: Sum(rhs),rhsMax =   3.73138880723548E-04  1.11412443414760E-02
 cg2d: Sum(rhs),rhsMax =   3.73234494374984E-04  1.11420618938602E-02
 cg2d: Sum(rhs),rhsMax =   3.73329860653328E-04  1.11428789471099E-02
 cg2d: Sum(rhs),rhsMax =   3.73424944059775E-04  1.11436954998091E-02
 cg2d: Sum(rhs),rhsMax =   3.73519739233434E-04  1.11445115564588E-02
 cg2d: Sum(rhs),rhsMax =   3.73614255835096E-04  1.11453271110934E-02
 cg2d: Sum(rhs),rhsMax =   3.73708478609250E-04  1.11461421685866E-02
 cg2d: Sum(rhs),rhsMax =   3.73802406088811E-04  1.11469567233790E-02
 cg2d: Sum(rhs),rhsMax =   3.73896066953530E-04  1.11477707814997E-02
 cg2d: Sum(rhs),rhsMax =   3.73989455604016E-04  1.11485843366860E-02
 cg2d: Sum(rhs),rhsMax =   3.74082552678649E-04  1.11493973940666E-02
 cg2d: Sum(rhs),rhsMax =   3.74175352391115E-04  1.11502099466367E-02
 cg2d: Sum(rhs),rhsMax =   3.74267904901764E-04  1.11510220010345E-02
 cg2d: Sum(rhs),rhsMax =   3.74360165935592E-04  1.11518335539002E-02
 cg2d: Sum(rhs),rhsMax =   3.74452151153906E-04  1.11526446081049E-02
 cg2d: Sum(rhs),rhsMax =   3.74543869321991E-04  1.11534551562975E-02
 cg2d: Sum(rhs),rhsMax =   3.74635354529515E-04  1.11542652069147E-02
 cg2d: Sum(rhs),rhsMax =   3.74726558990998E-04  1.11550747532947E-02
 cg2d: Sum(rhs),rhsMax =   3.74817520230468E-04  1.11558838014766E-02
 cg2d: Sum(rhs),rhsMax =   3.74908202569437E-04  1.11566923437330E-02
 cg2d: Sum(rhs),rhsMax =   3.74998629986146E-04  1.11575003874667E-02
 cg2d: Sum(rhs),rhsMax =   3.75088799934779E-04  1.11583079249144E-02
 cg2d: Sum(rhs),rhsMax =   3.75178676476762E-04  1.11591149634128E-02
 cg2d: Sum(rhs),rhsMax =   3.75268302248074E-04  1.11599214971658E-02
 cg2d: Sum(rhs),rhsMax =   3.75357688738420E-04  1.11607275310168E-02
 cg2d: Sum(rhs),rhsMax =   3.75446822909986E-04  1.11615330576278E-02
 cg2d: Sum(rhs),rhsMax =   3.75535707172681E-04  1.11623380852744E-02
 cg2d: Sum(rhs),rhsMax =   3.75624332067009E-04  1.11631426062768E-02
 cg2d: Sum(rhs),rhsMax =   3.75712730584187E-04  1.11639466279426E-02
 cg2d: Sum(rhs),rhsMax =   3.75800836919351E-04  1.11647501419716E-02
 cg2d: Sum(rhs),rhsMax =   3.75888708089030E-04  1.11655531559518E-02
 cg2d: Sum(rhs),rhsMax =   3.75976343019963E-04  1.11663556632196E-02
 cg2d: Sum(rhs),rhsMax =   3.76063728968227E-04  1.11671576702201E-02
 cg2d: Sum(rhs),rhsMax =   3.76150885461226E-04  1.11679591691066E-02
(PID.TID 0000.0001)      cg2d_init_res =   4.36561365425091E-03
(PID.TID 0000.0001)      cg2d_iters(min,last) =      -1     376
(PID.TID 0000.0001)      cg2d_last_res =   9.41291134460772E-08
(PID.TID 0000.0001) // =======================================================
(PID.TID 0000.0001) // Begin MONITOR dynamic field statistics
(PID.TID 0000.0001) // =======================================================
(PID.TID 0000.0001) %MON time_tsnumber                =                  8496
(PID.TID 0000.0001) %MON time_secondsf                =   1.0195200000000E+07
(PID.TID 0000.0001) %MON dynstat_eta_max              =   9.7459499075684E-02
(PID.TID 0000.0001) %MON dynstat_eta_min              =  -2.3191018555179E-01
(PID.TID 0000.0001) %MON dynstat_eta_mean             =  -1.9996938653646E-08
(PID.TID 0000.0001) %MON dynstat_eta_sd               =   8.7876782084669E-02
(PID.TID 0000.0001) %MON dynstat_eta_del2             =   5.1156445148212E-07
(PID.TID 0000.0001) %MON dynstat_uvel_max             =   8.3338635229312E-02
(PID.TID 0000.0001) %MON dynstat_uvel_min             =  -9.9032467657323E-02
(PID.TID 0000.0001) %MON dynstat_uvel_mean            =  -1.4588924167856E-07
(PID.TID 0000.0001) %MON dynstat_uvel_sd              =   3.5968849517424E-02
(PID.TID 0000.0001) %MON dynstat_uvel_del2            =   8.2982896903731E-07
(PID.TID 0000.0001) %MON dynstat_vvel_max             =   9.2470730650069E-02
(PID.TID 0000.0001) %MON dynstat_vvel_min             =  -7.7125649949060E-02
(PID.TID 0000.0001) %MON dynstat_vvel_mean            =  -2.2074140200970E-07
(PID.TID 0000.0001) %MON dynstat_vvel_sd              =   3.2500758973058E-02
(PID.TID 0000.0001) %MON dynstat_vvel_del2            =   1.0747172128441E-06
(PID.TID 0000.0001) %MON dynstat_wvel_max             =   1.4898436320946E-08
(PID.TID 0000.0001) %MON dynstat_wvel_min             =  -1.8465519235469E-08
(PID.TID 0000.0001) %MON dynstat_wvel_mean            =  -7.0273272053055E-21
(PID.TID 0000.0001) %MON dynstat_wvel_sd              =   6.8456289564144E-09
(PID.TID 0000.0001) %MON dynstat_wvel_del2            =   5.4560238610853E-14
(PID.TID 0000.0001) %MON dynstat_theta_max            =   2.0000000000000E+01
(PID.TID 0000.0001) %MON dynstat_theta_min            =   2.0000000000000E+01
(PID.TID 0000.0001) %MON dynstat_theta_mean           =   1.9999999999999E+01
(PID.TID 0000.0001) %MON dynstat_theta_sd             =   1.1972645097557E-12
(PID.TID 0000.0001) %MON dynstat_theta_del2           =   0.0000000000000E+00
(PID.TID 0000.0001) %MON dynstat_salt_max             =   3.0000000000000E+01
(PID.TID 0000.0001) %MON dynstat_salt_min             =   3.0000000000000E+01
(PID.TID 0000.0001) %MON dynstat_salt_mean            =   2.9999999999998E+01
(PID.TID 0000.0001) %MON dynstat_salt_sd              =   2.1529444893531E-12
(PID.TID 0000.0001) %MON dynstat_salt_del2            =   0.0000000000000E+00
(PID.TID 0000.0001) %MON trAdv_CFL_u_max              =   2.3766570600813E-02
(PID.TID 0000.0001) %MON trAdv_CFL_v_max              =   2.2190781027373E-02
(PID.TID 0000.0001) %MON trAdv_CFL_w_max              =   3.7618675281792E-09
(PID.TID 0000.0001) %MON advcfl_uvel_max              =   2.3767792237758E-02
(PID.TID 0000.0001) %MON advcfl_vvel_max              =   2.2192975356016E-02
(PID.TID 0000.0001) %MON advcfl_wvel_max              =   8.8634492330253E-09
(PID.TID 0000.0001) %MON advcfl_W_hf_max              =   0.0000000000000E+00
(PID.TID 0000.0001) %MON pe_b_mean                    =   7.9010001036697E-06
(PID.TID 0000.0001) %MON ke_max                       =   4.9055980220953E-03
(PID.TID 0000.0001) %MON ke_mean                      =   1.1697394832344E-03
(PID.TID 0000.0001) %MON ke_vol                       =   7.2529629296391E+15
(PID.TID 0000.0001) %MON vort_r_min                   =  -3.5459088400764E-06
(PID.TID 0000.0001) %MON vort_r_max                   =   2.7274212729902E-06
(PID.TID 0000.0001) %MON vort_a_mean                  =   1.0615000000000E-04
(PID.TID 0000.0001) %MON vort_a_sd                    =   3.6036250208972E-06
(PID.TID 0000.0001) %MON vort_p_mean                  =   1.1210870169429E-04
(PID.TID 0000.0001) %MON vort_p_sd                    =   2.1060253576993E-05
(PID.TID 0000.0001) %MON surfExpan_theta_mean         =  -1.4080186051689E-19
(PID.TID 0000.0001) %MON surfExpan_salt_mean          =  -2.1141720288133E-19
(PID.TID 0000.0001) // =======================================================
(PID.TID 0000.0001) // End MONITOR dynamic field statistics
(PID.TID 0000.0001) // =======================================================
 cg2d: Sum(rhs),rhsMax =   3.76237780967167E-04  1.11687601681135E-02
 cg2d: Sum(rhs),rhsMax =   3.76324439148649E-04  1.11695606588065E-02
 cg2d: Sum(rhs),rhsMax =   3.76410889151723E-04  1.11703606488548E-02
 cg2d: Sum(rhs),rhsMax =   3.76497091167938E-04  1.11711601307660E-02
 cg2d: Sum(rhs),rhsMax =   3.76582997873732E-04  1.11719591125956E-02
 cg2d: Sum(rhs),rhsMax =   3.76668745021727E-04  1.11727575838688E-02
 cg2d: Sum(rhs),rhsMax =   3.76754235837289E-04  1.11735555568860E-02
 cg2d: Sum(rhs),rhsMax =   3.76839516786126E-04  1.11743530202447E-02
 cg2d: Sum(rhs),rhsMax =   3.76924578767082E-04  1.11751499824005E-02
 cg2d: Sum(rhs),rhsMax =   3.77009412472451E-04  1.11759464351720E-02
 cg2d: Sum(rhs),rhsMax =   3.77094023801535E-04  1.11767423865951E-02
 cg2d: Sum(rhs),rhsMax =   3.77178403883646E-04  1.11775378287559E-02
 cg2d: Sum(rhs),rhsMax =   3.77262534047233E-04  1.11783327684522E-02
 cg2d: Sum(rhs),rhsMax =   3.77346469463012E-04  1.11791272009296E-02
 cg2d: Sum(rhs),rhsMax =   3.77430189236291E-04  1.11799211318851E-02
 cg2d: Sum(rhs),rhsMax =   3.77513693580052E-04  1.11807145513642E-02
 cg2d: Sum(rhs),rhsMax =   3.77596983862289E-04  1.11815074698281E-02
 cg2d: Sum(rhs),rhsMax =   3.77680048230798E-04  1.11822998784672E-02
 cg2d: Sum(rhs),rhsMax =   3.77762908876617E-04  1.11830917845158E-02
 cg2d: Sum(rhs),rhsMax =   3.77845561035530E-04  1.11838831812472E-02
 cg2d: Sum(rhs),rhsMax =   3.77927954639925E-04  1.11846740759834E-02
 cg2d: Sum(rhs),rhsMax =   3.78010179272676E-04  1.11854644608338E-02
 cg2d: Sum(rhs),rhsMax =   3.78092217768355E-04  1.11862543435606E-02
 cg2d: Sum(rhs),rhsMax =   3.78174038373874E-04  1.11870437148032E-02
 cg2d: Sum(rhs),rhsMax =   3.78255667906448E-04  1.11878325845111E-02
 cg2d: Sum(rhs),rhsMax =   3.78337040205626E-04  1.11886209437402E-02
 cg2d: Sum(rhs),rhsMax =   3.78418272545828E-04  1.11894087998007E-02
 cg2d: Sum(rhs),rhsMax =   3.78499271850921E-04  1.11901961456068E-02
 cg2d: Sum(rhs),rhsMax =   3.78580095935721E-04  1.11909829898134E-02
 cg2d: Sum(rhs),rhsMax =   3.78660748089286E-04  1.11917693224535E-02
 cg2d: Sum(rhs),rhsMax =   3.78741186084195E-04  1.11925551525327E-02
 cg2d: Sum(rhs),rhsMax =   3.78821446875904E-04  1.11933404715825E-02
 cg2d: Sum(rhs),rhsMax =   3.78901484530214E-04  1.11941252880883E-02
 cg2d: Sum(rhs),rhsMax =   3.78981365239681E-04  1.11949095931731E-02
 cg2d: Sum(rhs),rhsMax =   3.79061042225149E-04  1.11956933969218E-02
 cg2d: Sum(rhs),rhsMax =   3.79140540097056E-04  1.11964766892501E-02
 cg2d: Sum(rhs),rhsMax =   3.79219834015041E-04  1.11972594779765E-02
 cg2d: Sum(rhs),rhsMax =   3.79298953707445E-04  1.11980417544724E-02
 cg2d: Sum(rhs),rhsMax =   3.79377886591604E-04  1.11988235305451E-02
 cg2d: Sum(rhs),rhsMax =   3.79456652059148E-04  1.11996047947506E-02
 cg2d: Sum(rhs),rhsMax =   3.79535221875994E-04  1.12003855554890E-02
 cg2d: Sum(rhs),rhsMax =   3.79613593589019E-04  1.12011658045666E-02
 cg2d: Sum(rhs),rhsMax =   3.79691797171872E-04  1.12019455518141E-02
 cg2d: Sum(rhs),rhsMax =   3.79769851992772E-04  1.12027247863679E-02
 cg2d: Sum(rhs),rhsMax =   3.79847745011649E-04  1.12035035191198E-02
 cg2d: Sum(rhs),rhsMax =   3.79925428958844E-04  1.12042817392226E-02
 cg2d: Sum(rhs),rhsMax =   3.80002954718144E-04  1.12050594576170E-02
 cg2d: Sum(rhs),rhsMax =   3.80080330988838E-04  1.12058366638289E-02
 cg2d: Sum(rhs),rhsMax =   3.80157531076217E-04  1.12066133675388E-02
 cg2d: Sum(rhs),rhsMax =   3.80234542693916E-04  1.12073895593386E-02
 cg2d: Sum(rhs),rhsMax =   3.80311380425427E-04  1.12081652483923E-02
 cg2d: Sum(rhs),rhsMax =   3.80388088922505E-04  1.12089404254221E-02
 cg2d: Sum(rhs),rhsMax =   3.80464598549114E-04  1.12097150998310E-02
 cg2d: Sum(rhs),rhsMax =   3.80540963991148E-04  1.12104892631884E-02
 cg2d: Sum(rhs),rhsMax =   3.80617184612457E-04  1.12112629245440E-02
 cg2d: Sum(rhs),rhsMax =   3.80693249612336E-04  1.12120360725544E-02
 cg2d: Sum(rhs),rhsMax =   3.80769139717694E-04  1.12128087186434E-02
 cg2d: Sum(rhs),rhsMax =   3.80844877079260E-04  1.12135808526365E-02
 cg2d: Sum(rhs),rhsMax =   3.80920471753154E-04  1.12143524842477E-02
 cg2d: Sum(rhs),rhsMax =   3.80995894224507E-04  1.12151236041808E-02
 cg2d: Sum(rhs),rhsMax =   3.81071189327290E-04  1.12158942214426E-02
 cg2d: Sum(rhs),rhsMax =   3.81146314493753E-04  1.12166643270823E-02
 cg2d: Sum(rhs),rhsMax =   3.81221313537921E-04  1.12174339296949E-02
 cg2d: Sum(rhs),rhsMax =   3.81296106741629E-04  1.12182030220841E-02
 cg2d: Sum(rhs),rhsMax =   3.81370791277686E-04  1.12189716115374E-02
 cg2d: Sum(rhs),rhsMax =   3.81445317817973E-04  1.12197396889713E-02
 cg2d: Sum(rhs),rhsMax =   3.81519737015626E-04  1.12205072645326E-02
 cg2d: Sum(rhs),rhsMax =   3.81593995507266E-04  1.12212743281501E-02
 cg2d: Sum(rhs),rhsMax =   3.81668064521997E-04  1.12220408904074E-02
 cg2d: Sum(rhs),rhsMax =   3.81742035697300E-04  1.12228069396132E-02
 cg2d: Sum(rhs),rhsMax =   3.81815834774769E-04  1.12235724883411E-02
 cg2d: Sum(rhs),rhsMax =   3.81889537003067E-04  1.12243375244858E-02
(PID.TID 0000.0001)      cg2d_init_res =   4.31370563926575E-03
(PID.TID 0000.0001)      cg2d_iters(min,last) =      -1     376
(PID.TID 0000.0001)      cg2d_last_res =   9.20095993503344E-08
(PID.TID 0000.0001) // =======================================================
(PID.TID 0000.0001) // Begin MONITOR dynamic field statistics
(PID.TID 0000.0001) // =======================================================
(PID.TID 0000.0001) %MON time_tsnumber                =                  8568
(PID.TID 0000.0001) %MON time_secondsf                =   1.0281600000000E+07
(PID.TID 0000.0001) %MON dynstat_eta_max              =   9.7928807677855E-02
(PID.TID 0000.0001) %MON dynstat_eta_min              =  -2.3334970165070E-01
(PID.TID 0000.0001) %MON dynstat_eta_mean             =  -2.0403648533809E-08
(PID.TID 0000.0001) %MON dynstat_eta_sd               =   8.8336490548842E-02
(PID.TID 0000.0001) %MON dynstat_eta_del2             =   5.1441422675914E-07
(PID.TID 0000.0001) %MON dynstat_uvel_max             =   8.4205556665663E-02
(PID.TID 0000.0001) %MON dynstat_uvel_min             =  -9.9397223564651E-02
(PID.TID 0000.0001) %MON dynstat_uvel_mean            =  -1.6532885224414E-07
(PID.TID 0000.0001) %MON dynstat_uvel_sd              =   3.6196010050035E-02
(PID.TID 0000.0001) %MON dynstat_uvel_del2            =   8.3256396101178E-07
(PID.TID 0000.0001) %MON dynstat_vvel_max             =   9.3140266364211E-02
(PID.TID 0000.0001) %MON dynstat_vvel_min             =  -7.7470453462038E-02
(PID.TID 0000.0001) %MON dynstat_vvel_mean            =  -1.8938389822835E-07
(PID.TID 0000.0001) %MON dynstat_vvel_sd              =   3.2651342026610E-02
(PID.TID 0000.0001) %MON dynstat_vvel_del2            =   1.0826142055801E-06
(PID.TID 0000.0001) %MON dynstat_wvel_max             =   1.5001752882963E-08
(PID.TID 0000.0001) %MON dynstat_wvel_min             =  -1.8709973650984E-08
(PID.TID 0000.0001) %MON dynstat_wvel_mean            =  -6.2738436193689E-21
(PID.TID 0000.0001) %MON dynstat_wvel_sd              =   6.7880779555183E-09
(PID.TID 0000.0001) %MON dynstat_wvel_del2            =   5.4136271693812E-14
(PID.TID 0000.0001) %MON dynstat_theta_max            =   2.0000000000000E+01
(PID.TID 0000.0001) %MON dynstat_theta_min            =   2.0000000000000E+01
(PID.TID 0000.0001) %MON dynstat_theta_mean           =   1.9999999999999E+01
(PID.TID 0000.0001) %MON dynstat_theta_sd             =   1.1972645097557E-12
(PID.TID 0000.0001) %MON dynstat_theta_del2           =   0.0000000000000E+00
(PID.TID 0000.0001) %MON dynstat_salt_max             =   3.0000000000000E+01
(PID.TID 0000.0001) %MON dynstat_salt_min             =   3.0000000000000E+01
(PID.TID 0000.0001) %MON dynstat_salt_mean            =   2.9999999999998E+01
(PID.TID 0000.0001) %MON dynstat_salt_sd              =   2.1529444893531E-12
(PID.TID 0000.0001) %MON dynstat_salt_del2            =   0.0000000000000E+00
(PID.TID 0000.0001) %MON trAdv_CFL_u_max              =   2.3854141010475E-02
(PID.TID 0000.0001) %MON trAdv_CFL_v_max              =   2.2351395405410E-02
(PID.TID 0000.0001) %MON trAdv_CFL_w_max              =   3.7857966483950E-09
(PID.TID 0000.0001) %MON advcfl_uvel_max              =   2.3855333655516E-02
(PID.TID 0000.0001) %MON advcfl_vvel_max              =   2.2353663927411E-02
(PID.TID 0000.0001) %MON advcfl_wvel_max              =   8.9807873524725E-09
(PID.TID 0000.0001) %MON advcfl_W_hf_max              =   0.0000000000000E+00
(PID.TID 0000.0001) %MON pe_b_mean                    =   7.9838810867770E-06
(PID.TID 0000.0001) %MON ke_max                       =   4.9417032098124E-03
(PID.TID 0000.0001) %MON ke_mean                      =   1.1827824116943E-03
(PID.TID 0000.0001) %MON ke_vol                       =   7.2529629296391E+15
(PID.TID 0000.0001) %MON vort_r_min                   =  -3.5642995092248E-06
(PID.TID 0000.0001) %MON vort_r_max                   =   2.7470665725385E-06
(PID.TID 0000.0001) %MON vort_a_mean                  =   1.0615000000000E-04
(PID.TID 0000.0001) %MON vort_a_sd                    =   3.6040645534386E-06
(PID.TID 0000.0001) %MON vort_p_mean                  =   1.1210870169429E-04
(PID.TID 0000.0001) %MON vort_p_sd                    =   2.1060343677161E-05
(PID.TID 0000.0001) %MON surfExpan_theta_mean         =  -1.2537116782850E-19
(PID.TID 0000.0001) %MON surfExpan_salt_mean          =  -1.8799478538838E-19
(PID.TID 0000.0001) // =======================================================
(PID.TID 0000.0001) // End MONITOR dynamic field statistics
(PID.TID 0000.0001) // =======================================================
 cg2d: Sum(rhs),rhsMax =   3.81963082567204E-04  1.12251020595610E-02
 cg2d: Sum(rhs),rhsMax =   3.82036497253995E-04  1.12258660826600E-02
 cg2d: Sum(rhs),rhsMax =   3.82109790658522E-04  1.12266296053540E-02
 cg2d: Sum(rhs),rhsMax =   3.82182930669840E-04  1.12273926154153E-02
 cg2d: Sum(rhs),rhsMax =   3.82255941272277E-04  1.12281551246370E-02
 cg2d: Sum(rhs),rhsMax =   3.82328817491246E-04  1.12289171218413E-02
 cg2d: Sum(rhs),rhsMax =   3.82401543823451E-04  1.12296786184507E-02
 cg2d: Sum(rhs),rhsMax =   3.82474157480056E-04  1.12304396034974E-02
 cg2d: Sum(rhs),rhsMax =   3.82546628575498E-04  1.12312000877115E-02
 cg2d: Sum(rhs),rhsMax =   3.82618998836386E-04  1.12319600602287E-02
 cg2d: Sum(rhs),rhsMax =   3.82691226204006E-04  1.12327195325582E-02
 cg2d: Sum(rhs),rhsMax =   3.82763303855243E-04  1.12334784932812E-02
 cg2d: Sum(rhs),rhsMax =   3.82835262608948E-04  1.12342369539228E-02
 cg2d: Sum(rhs),rhsMax =   3.82907098420086E-04  1.12349949036599E-02
 cg2d: Sum(rhs),rhsMax =   3.82978833367076E-04  1.12357523529898E-02
 cg2d: Sum(rhs),rhsMax =   3.83050447049497E-04  1.12365092916378E-02
 cg2d: Sum(rhs),rhsMax =   3.83121928399142E-04  1.12372657291183E-02
 cg2d: Sum(rhs),rhsMax =   3.83193299719227E-04  1.12380216550205E-02
 cg2d: Sum(rhs),rhsMax =   3.83264527078028E-04  1.12387770832572E-02
 cg2d: Sum(rhs),rhsMax =   3.83335663384877E-04  1.12395320008982E-02
 cg2d: Sum(rhs),rhsMax =   3.83406671390380E-04  1.12402864179785E-02
 cg2d: Sum(rhs),rhsMax =   3.83477572102071E-04  1.12410403242295E-02
 cg2d: Sum(rhs),rhsMax =   3.83548327127647E-04  1.12417937321814E-02
 cg2d: Sum(rhs),rhsMax =   3.83618982236725E-04  1.12425466299430E-02
 cg2d: Sum(rhs),rhsMax =   3.83689516391521E-04  1.12432990273799E-02
 cg2d: Sum(rhs),rhsMax =   3.83759946383476E-04  1.12440509145168E-02
 cg2d: Sum(rhs),rhsMax =   3.83830265504616E-04  1.12448023045693E-02
 cg2d: Sum(rhs),rhsMax =   3.83900457651650E-04  1.12455531852000E-02
 cg2d: Sum(rhs),rhsMax =   3.83970541464676E-04  1.12463035650995E-02
 cg2d: Sum(rhs),rhsMax =   3.84040531713526E-04  1.12470534358204E-02
 cg2d: Sum(rhs),rhsMax =   3.84110385232634E-04  1.12478028089943E-02
 cg2d: Sum(rhs),rhsMax =   3.84180144070167E-04  1.12485516727180E-02
 cg2d: Sum(rhs),rhsMax =   3.84249793803464E-04  1.12493000382487E-02
 cg2d: Sum(rhs),rhsMax =   3.84319343313727E-04  1.12500478948244E-02
 cg2d: Sum(rhs),rhsMax =   3.84388775042791E-04  1.12507952531411E-02
 cg2d: Sum(rhs),rhsMax =   3.84458115659160E-04  1.12515421027018E-02
 cg2d: Sum(rhs),rhsMax =   3.84527344290410E-04  1.12522884553320E-02
 cg2d: Sum(rhs),rhsMax =   3.84596456320252E-04  1.12530342991296E-02
 cg2d: Sum(rhs),rhsMax =   3.84665466991981E-04  1.12537796455162E-02
 cg2d: Sum(rhs),rhsMax =   3.84734399105807E-04  1.12545244836892E-02
 cg2d: Sum(rhs),rhsMax =   3.84803195674063E-04  1.12552688256810E-02
 cg2d: Sum(rhs),rhsMax =   3.84871916830103E-04  1.12560126596792E-02
 cg2d: Sum(rhs),rhsMax =   3.84940518932694E-04  1.12567559962539E-02
 cg2d: Sum(rhs),rhsMax =   3.85009032556494E-04  1.12574988252321E-02
 cg2d: Sum(rhs),rhsMax =   3.85077438866318E-04  1.12582411587357E-02
 cg2d: Sum(rhs),rhsMax =   3.85145737386711E-04  1.12589829847788E-02
 cg2d: Sum(rhs),rhsMax =   3.85213935143635E-04  1.12597243145068E-02
 cg2d: Sum(rhs),rhsMax =   3.85282024072989E-04  1.12604651366746E-02
 cg2d: Sum(rhs),rhsMax =   3.85350010591734E-04  1.12612054648675E-02
 cg2d: Sum(rhs),rhsMax =   3.85417931643782E-04  1.12619452857211E-02
 cg2d: Sum(rhs),rhsMax =   3.85485722605263E-04  1.12626846114512E-02
 cg2d: Sum(rhs),rhsMax =   3.85553404619423E-04  1.12634234319971E-02
 cg2d: Sum(rhs),rhsMax =   3.85621015315909E-04  1.12641617548666E-02
 cg2d: Sum(rhs),rhsMax =   3.85688546432462E-04  1.12648995734658E-02
 cg2d: Sum(rhs),rhsMax =   3.85755971775491E-04  1.12656368971283E-02
 cg2d: Sum(rhs),rhsMax =   3.85823312241034E-04  1.12663737157206E-02
 cg2d: Sum(rhs),rhsMax =   3.85890532478610E-04  1.12671100406311E-02
 cg2d: Sum(rhs),rhsMax =   3.85957633044580E-04  1.12678458622083E-02
 cg2d: Sum(rhs),rhsMax =   3.86024678657084E-04  1.12685811848879E-02
 cg2d: Sum(rhs),rhsMax =   3.86091596451876E-04  1.12693160056211E-02
 cg2d: Sum(rhs),rhsMax =   3.86158460813087E-04  1.12700503340991E-02
 cg2d: Sum(rhs),rhsMax =   3.86225217449103E-04  1.12707841574445E-02
 cg2d: Sum(rhs),rhsMax =   3.86291884297467E-04  1.12715174881883E-02
 cg2d: Sum(rhs),rhsMax =   3.86358468093704E-04  1.12722503141098E-02
 cg2d: Sum(rhs),rhsMax =   3.86424942223709E-04  1.12729826488113E-02
 cg2d: Sum(rhs),rhsMax =   3.86491332094105E-04  1.12737144795412E-02
 cg2d: Sum(rhs),rhsMax =   3.86557625276517E-04  1.12744458179716E-02
 cg2d: Sum(rhs),rhsMax =   3.86623814440420E-04  1.12751766526719E-02
 cg2d: Sum(rhs),rhsMax =   3.86689915232760E-04  1.12759069970765E-02
 cg2d: Sum(rhs),rhsMax =   3.86755942261481E-04  1.12766368385031E-02
 cg2d: Sum(rhs),rhsMax =   3.86821846284026E-04  1.12773661889713E-02
 cg2d: Sum(rhs),rhsMax =   3.86887700243867E-04  1.12780950370616E-02
(PID.TID 0000.0001)      cg2d_init_res =   4.26279963402152E-03
(PID.TID 0000.0001)      cg2d_iters(min,last) =      -1     376
(PID.TID 0000.0001)      cg2d_last_res =   9.03589836169986E-08
(PID.TID 0000.0001) // =======================================================
(PID.TID 0000.0001) // Begin MONITOR dynamic field statistics
(PID.TID 0000.0001) // =======================================================
(PID.TID 0000.0001) %MON time_tsnumber                =                  8640
(PID.TID 0000.0001) %MON time_secondsf                =   1.0368000000000E+07
(PID.TID 0000.0001) %MON dynstat_eta_max              =   9.8500240738053E-02
(PID.TID 0000.0001) %MON dynstat_eta_min              =  -2.3478374607379E-01
(PID.TID 0000.0001) %MON dynstat_eta_mean             =  -2.0769147239422E-08
(PID.TID 0000.0001) %MON dynstat_eta_sd               =   8.8788482331675E-02
(PID.TID 0000.0001) %MON dynstat_eta_del2             =   5.1726523726509E-07
(PID.TID 0000.0001) %MON dynstat_uvel_max             =   8.5042128679277E-02
(PID.TID 0000.0001) %MON dynstat_uvel_min             =  -9.9749764517746E-02
(PID.TID 0000.0001) %MON dynstat_uvel_mean            =  -1.7750390831625E-07
(PID.TID 0000.0001) %MON dynstat_uvel_sd              =   3.6410786462862E-02
(PID.TID 0000.0001) %MON dynstat_uvel_del2            =   8.3477290839573E-07
(PID.TID 0000.0001) %MON dynstat_vvel_max             =   9.3832157875910E-02
(PID.TID 0000.0001) %MON dynstat_vvel_min             =  -7.7816661026722E-02
(PID.TID 0000.0001) %MON dynstat_vvel_mean            =  -1.5554763018671E-07
(PID.TID 0000.0001) %MON dynstat_vvel_sd              =   3.2813769308342E-02
(PID.TID 0000.0001) %MON dynstat_vvel_del2            =   1.0908065164730E-06
(PID.TID 0000.0001) %MON dynstat_wvel_max             =   1.4876533731585E-08
(PID.TID 0000.0001) %MON dynstat_wvel_min             =  -1.8940135114826E-08
(PID.TID 0000.0001) %MON dynstat_wvel_mean            =   5.7434461317888E-21
(PID.TID 0000.0001) %MON dynstat_wvel_sd              =   6.7306810650363E-09
(PID.TID 0000.0001) %MON dynstat_wvel_del2            =   5.3713895129319E-14
(PID.TID 0000.0001) %MON dynstat_theta_max            =   2.0000000000000E+01
(PID.TID 0000.0001) %MON dynstat_theta_min            =   2.0000000000000E+01
(PID.TID 0000.0001) %MON dynstat_theta_mean           =   1.9999999999999E+01
(PID.TID 0000.0001) %MON dynstat_theta_sd             =   1.1972645097557E-12
(PID.TID 0000.0001) %MON dynstat_theta_del2           =   0.0000000000000E+00
(PID.TID 0000.0001) %MON dynstat_salt_max             =   3.0000000000000E+01
(PID.TID 0000.0001) %MON dynstat_salt_min             =   3.0000000000000E+01
(PID.TID 0000.0001) %MON dynstat_salt_mean            =   2.9999999999998E+01
(PID.TID 0000.0001) %MON dynstat_salt_sd              =   2.1529444893531E-12
(PID.TID 0000.0001) %MON dynstat_salt_del2            =   0.0000000000000E+00
(PID.TID 0000.0001) %MON trAdv_CFL_u_max              =   2.3938778701840E-02
(PID.TID 0000.0001) %MON trAdv_CFL_v_max              =   2.2517375126099E-02
(PID.TID 0000.0001) %MON trAdv_CFL_w_max              =   3.7503722298749E-09
(PID.TID 0000.0001) %MON advcfl_uvel_max              =   2.3939943484259E-02
(PID.TID 0000.0001) %MON advcfl_vvel_max              =   2.2519717890218E-02
(PID.TID 0000.0001) %MON advcfl_wvel_max              =   9.0912648551166E-09
(PID.TID 0000.0001) %MON advcfl_W_hf_max              =   0.0000000000000E+00
(PID.TID 0000.0001) %MON pe_b_mean                    =   8.0657924423120E-06
(PID.TID 0000.0001) %MON ke_max                       =   4.9768745898797E-03
(PID.TID 0000.0001) %MON ke_mean                      =   1.1958371552966E-03
(PID.TID 0000.0001) %MON ke_vol                       =   7.2529629296391E+15
(PID.TID 0000.0001) %MON vort_r_min                   =  -3.5818234325970E-06
(PID.TID 0000.0001) %MON vort_r_max                   =   2.7687064173430E-06
(PID.TID 0000.0001) %MON vort_a_mean                  =   1.0615000000000E-04
(PID.TID 0000.0001) %MON vort_a_sd                    =   3.6045039731925E-06
(PID.TID 0000.0001) %MON vort_p_mean                  =   1.1210870169429E-04
(PID.TID 0000.0001) %MON vort_p_sd                    =   2.1060451408218E-05
(PID.TID 0000.0001) %MON surfExpan_theta_mean         =   1.1450469218300E-19
(PID.TID 0000.0001) %MON surfExpan_salt_mean          =   1.7173456522941E-19
(PID.TID 0000.0001) // =======================================================
(PID.TID 0000.0001) // End MONITOR dynamic field statistics
(PID.TID 0000.0001) // =======================================================
 cg2d: Sum(rhs),rhsMax =   3.86953457171780E-04  1.12788233944834E-02
 cg2d: Sum(rhs),rhsMax =   3.87019107456494E-04  1.12795512505638E-02
 cg2d: Sum(rhs),rhsMax =   3.87084668676941E-04  1.12802786156010E-02
 cg2d: Sum(rhs),rhsMax =   3.87150169527820E-04  1.12810054792972E-02
 cg2d: Sum(rhs),rhsMax =   3.87215566230798E-04  1.12817318541668E-02
 cg2d: Sum(rhs),rhsMax =   3.87280849113625E-04  1.12824577279920E-02
 cg2d: Sum(rhs),rhsMax =   3.87346045940070E-04  1.12831831123928E-02
 cg2d: Sum(rhs),rhsMax =   3.87411182576724E-04  1.12839079966258E-02
 cg2d: Sum(rhs),rhsMax =   3.87476203073714E-04  1.12846323926309E-02
 cg2d: Sum(rhs),rhsMax =   3.87541169218715E-04  1.12853562885481E-02
 cg2d: Sum(rhs),rhsMax =   3.87606011220933E-04  1.12860796966871E-02
 cg2d: Sum(rhs),rhsMax =   3.87670772935009E-04  1.12868026051461E-02
 cg2d: Sum(rhs),rhsMax =   3.87735443024284E-04  1.12875250264530E-02
 cg2d: Sum(rhs),rhsMax =   3.87800037200646E-04  1.12882469484823E-02
 cg2d: Sum(rhs),rhsMax =   3.87864526115235E-04  1.12889683830643E-02
 cg2d: Sum(rhs),rhsMax =   3.87928949198826E-04  1.12896893204378E-02
 cg2d: Sum(rhs),rhsMax =   3.87993282079177E-04  1.12904097707781E-02
 cg2d: Sum(rhs),rhsMax =   3.88057494869639E-04  1.12911297239028E-02
 cg2d: Sum(rhs),rhsMax =   3.88121641576915E-04  1.12918491899266E-02
 cg2d: Sum(rhs),rhsMax =   3.88185695153117E-04  1.12925681597708E-02
 cg2d: Sum(rhs),rhsMax =   3.88249663390069E-04  1.12932866434284E-02
 cg2d: Sum(rhs),rhsMax =   3.88313528709990E-04  1.12940046313837E-02
 cg2d: Sum(rhs),rhsMax =   3.88377313513173E-04  1.12947221331626E-02
 cg2d: Sum(rhs),rhsMax =   3.88440982407675E-04  1.12954391403573E-02
 cg2d: Sum(rhs),rhsMax =   3.88504591827725E-04  1.12961556625994E-02
 cg2d: Sum(rhs),rhsMax =   3.88568103451914E-04  1.12968716897642E-02
 cg2d: Sum(rhs),rhsMax =   3.88631534878283E-04  1.12975872326765E-02
 cg2d: Sum(rhs),rhsMax =   3.88694879628004E-04  1.12983022814914E-02
 cg2d: Sum(rhs),rhsMax =   3.88758146064415E-04  1.12990168467067E-02
 cg2d: Sum(rhs),rhsMax =   3.88821324328832E-04  1.12997309176851E-02
 cg2d: Sum(rhs),rhsMax =   3.88884414685318E-04  1.13004445061762E-02
 cg2d: Sum(rhs),rhsMax =   3.88947404435860E-04  1.13011576013562E-02
 cg2d: Sum(rhs),rhsMax =   3.89010311362875E-04  1.13018702151798E-02
 cg2d: Sum(rhs),rhsMax =   3.89073115584939E-04  1.13025823349830E-02
 cg2d: Sum(rhs),rhsMax =   3.89135844129453E-04  1.13032939737760E-02
 cg2d: Sum(rhs),rhsMax =   3.89198466345020E-04  1.13040051201852E-02
 cg2d: Sum(rhs),rhsMax =   3.89261017167061E-04  1.13047157863021E-02
 cg2d: Sum(rhs),rhsMax =   3.89336482562322E-04  1.13054259799811E-02
 cg2d: Sum(rhs),rhsMax =   3.89411821387877E-04  1.13061356719891E-02
 cg2d: Sum(rhs),rhsMax =   3.89487074640940E-04  1.13068448774757E-02
 cg2d: Sum(rhs),rhsMax =   3.89562147966635E-04  1.13075535971014E-02
 cg2d: Sum(rhs),rhsMax =   3.89637154673874E-04  1.13082618332981E-02
 cg2d: Sum(rhs),rhsMax =   3.89711998298330E-04  1.13089695836995E-02
 cg2d: Sum(rhs),rhsMax =   3.89786769083312E-04  1.13096768524495E-02
 cg2d: Sum(rhs),rhsMax =   3.89861413179241E-04  1.13103836360306E-02
 cg2d: Sum(rhs),rhsMax =   3.89935949304591E-04  1.13110899379900E-02
 cg2d: Sum(rhs),rhsMax =   3.90010331358116E-04  1.13117957546681E-02
 cg2d: Sum(rhs),rhsMax =   3.90084616371963E-04  1.13125010917480E-02
 cg2d: Sum(rhs),rhsMax =   3.90158742497516E-04  1.13132059461149E-02
 cg2d: Sum(rhs),rhsMax =   3.90232792205134E-04  1.13139103172785E-02
 cg2d: Sum(rhs),rhsMax =   3.90306705778257E-04  1.13146142066075E-02
 cg2d: Sum(rhs),rhsMax =   3.90380516488884E-04  1.13153176150014E-02
 cg2d: Sum(rhs),rhsMax =   3.90454178378916E-04  1.13160205416332E-02
 cg2d: Sum(rhs),rhsMax =   3.90527746112385E-04  1.13167229886689E-02
 cg2d: Sum(rhs),rhsMax =   3.90601175472679E-04  1.13174249528536E-02
 cg2d: Sum(rhs),rhsMax =   3.90674482235313E-04  1.13181264421047E-02
 cg2d: Sum(rhs),rhsMax =   3.90747658837148E-04  1.13188274518083E-02
 cg2d: Sum(rhs),rhsMax =   3.90820725043865E-04  1.13195279802777E-02
 cg2d: Sum(rhs),rhsMax =   3.90893672093006E-04  1.13202280293951E-02
 cg2d: Sum(rhs),rhsMax =   3.90966484966122E-04  1.13209276011935E-02
 cg2d: Sum(rhs),rhsMax =   3.91039205150370E-04  1.13216266943679E-02
 cg2d: Sum(rhs),rhsMax =   3.91111781346003E-04  1.13223253106750E-02
 cg2d: Sum(rhs),rhsMax =   3.91184244139942E-04  1.13230234488612E-02
 cg2d: Sum(rhs),rhsMax =   3.91256591139354E-04  1.13237211114537E-02
 cg2d: Sum(rhs),rhsMax =   3.91328822071635E-04  1.13244182964000E-02
 cg2d: Sum(rhs),rhsMax =   3.91400909567751E-04  1.13251150070342E-02
 cg2d: Sum(rhs),rhsMax =   3.91472846527444E-04  1.13258112401283E-02
 cg2d: Sum(rhs),rhsMax =   3.91544686140614E-04  1.13265070004028E-02
 cg2d: Sum(rhs),rhsMax =   3.91616323007831E-04  1.13272022842043E-02
 cg2d: Sum(rhs),rhsMax =   3.91687891699993E-04  1.13278970948073E-02
 cg2d: Sum(rhs),rhsMax =   3.91759319728031E-04  1.13285914299148E-02
 cg2d: Sum(rhs),rhsMax =   3.91830647154416E-04  1.13292852928533E-02
(PID.TID 0000.0001)      cg2d_init_res =   4.21398859915882E-03
(PID.TID 0000.0001)      cg2d_iters(min,last) =      -1     375
(PID.TID 0000.0001)      cg2d_last_res =   9.83007876622516E-08
(PID.TID 0000.0001) // =======================================================
(PID.TID 0000.0001) // Begin MONITOR dynamic field statistics
(PID.TID 0000.0001) // =======================================================
(PID.TID 0000.0001) %MON time_tsnumber                =                  8712
(PID.TID 0000.0001) %MON time_secondsf                =   1.0454400000000E+07
(PID.TID 0000.0001) %MON dynstat_eta_max              =   9.9159134056601E-02
(PID.TID 0000.0001) %MON dynstat_eta_min              =  -2.3621943510436E-01
(PID.TID 0000.0001) %MON dynstat_eta_mean             =  -2.1130148131009E-08
(PID.TID 0000.0001) %MON dynstat_eta_sd               =   8.9231590747750E-02
(PID.TID 0000.0001) %MON dynstat_eta_del2             =   5.2010565960104E-07
(PID.TID 0000.0001) %MON dynstat_uvel_max             =   8.5840442457003E-02
(PID.TID 0000.0001) %MON dynstat_uvel_min             =  -1.0009223856192E-01
(PID.TID 0000.0001) %MON dynstat_uvel_mean            =  -1.8191693235673E-07
(PID.TID 0000.0001) %MON dynstat_uvel_sd              =   3.6611873912359E-02
(PID.TID 0000.0001) %MON dynstat_uvel_del2            =   8.3651131796105E-07
(PID.TID 0000.0001) %MON dynstat_vvel_max             =   9.4545873554627E-02
(PID.TID 0000.0001) %MON dynstat_vvel_min             =  -7.8171321139672E-02
(PID.TID 0000.0001) %MON dynstat_vvel_mean            =  -1.2053898181303E-07
(PID.TID 0000.0001) %MON dynstat_vvel_sd              =   3.2988657674358E-02
(PID.TID 0000.0001) %MON dynstat_vvel_del2            =   1.0990890842614E-06
(PID.TID 0000.0001) %MON dynstat_wvel_max             =   1.4527279268950E-08
(PID.TID 0000.0001) %MON dynstat_wvel_min             =  -1.9151832540520E-08
(PID.TID 0000.0001) %MON dynstat_wvel_mean            =  -5.1883274003920E-21
(PID.TID 0000.0001) %MON dynstat_wvel_sd              =   6.6718374185592E-09
(PID.TID 0000.0001) %MON dynstat_wvel_del2            =   5.3453180105440E-14
(PID.TID 0000.0001) %MON dynstat_theta_max            =   2.0000000000000E+01
(PID.TID 0000.0001) %MON dynstat_theta_min            =   2.0000000000000E+01
(PID.TID 0000.0001) %MON dynstat_theta_mean           =   1.9999999999999E+01
(PID.TID 0000.0001) %MON dynstat_theta_sd             =   1.1972645097557E-12
(PID.TID 0000.0001) %MON dynstat_theta_del2           =   0.0000000000000E+00
(PID.TID 0000.0001) %MON dynstat_salt_max             =   3.0000000000000E+01
(PID.TID 0000.0001) %MON dynstat_salt_min             =   3.0000000000000E+01
(PID.TID 0000.0001) %MON dynstat_salt_mean            =   2.9999999999998E+01
(PID.TID 0000.0001) %MON dynstat_salt_sd              =   2.1529444893531E-12
(PID.TID 0000.0001) %MON dynstat_salt_del2            =   0.0000000000000E+00
(PID.TID 0000.0001) %MON trAdv_CFL_u_max              =   2.4021017782576E-02
(PID.TID 0000.0001) %MON trAdv_CFL_v_max              =   2.2688596173612E-02
(PID.TID 0000.0001) %MON trAdv_CFL_w_max              =   3.6580230422065E-09
(PID.TID 0000.0001) %MON advcfl_uvel_max              =   2.4022137254861E-02
(PID.TID 0000.0001) %MON advcfl_vvel_max              =   2.2691009653110E-02
(PID.TID 0000.0001) %MON advcfl_wvel_max              =   9.1928796194494E-09
(PID.TID 0000.0001) %MON advcfl_W_hf_max              =   0.0000000000000E+00
(PID.TID 0000.0001) %MON pe_b_mean                    =   8.1464997296807E-06
(PID.TID 0000.0001) %MON ke_max                       =   5.0109888501871E-03
(PID.TID 0000.0001) %MON ke_mean                      =   1.2088742149015E-03
(PID.TID 0000.0001) %MON ke_vol                       =   7.2529629296391E+15
(PID.TID 0000.0001) %MON vort_r_min                   =  -3.5984834153867E-06
(PID.TID 0000.0001) %MON vort_r_max                   =   2.7916025127931E-06
(PID.TID 0000.0001) %MON vort_a_mean                  =   1.0615000000000E-04
(PID.TID 0000.0001) %MON vort_a_sd                    =   3.6049409036293E-06
(PID.TID 0000.0001) %MON vort_p_mean                  =   1.1210870169429E-04
(PID.TID 0000.0001) %MON vort_p_sd                    =   2.1060576023058E-05
(PID.TID 0000.0001) %MON surfExpan_theta_mean         =  -1.0418935314463E-19
(PID.TID 0000.0001) %MON surfExpan_salt_mean          =  -1.5625864950052E-19
(PID.TID 0000.0001) // =======================================================
(PID.TID 0000.0001) // End MONITOR dynamic field statistics
(PID.TID 0000.0001) // =======================================================
 cg2d: Sum(rhs),rhsMax =   3.91901845820001E-04  1.13299786813619E-02
 cg2d: Sum(rhs),rhsMax =   3.91972937725697E-04  1.13306715985329E-02
 cg2d: Sum(rhs),rhsMax =   3.92043885640559E-04  1.13313640410520E-02
 cg2d: Sum(rhs),rhsMax =   3.92114670916622E-04  1.13320560130679E-02
 cg2d: Sum(rhs),rhsMax =   3.92185383257707E-04  1.13327475120377E-02
 cg2d: Sum(rhs),rhsMax =   3.92255893573458E-04  1.13334385395659E-02
 cg2d: Sum(rhs),rhsMax =   3.92326310532588E-04  1.13341290978086E-02
 cg2d: Sum(rhs),rhsMax =   3.92396606952561E-04  1.13348191872550E-02
 cg2d: Sum(rhs),rhsMax =   3.92466778312619E-04  1.13355088048068E-02
 cg2d: Sum(rhs),rhsMax =   3.92536789093904E-04  1.13361979545228E-02
 cg2d: Sum(rhs),rhsMax =   3.92606697277528E-04  1.13368866327607E-02
 cg2d: Sum(rhs),rhsMax =   3.92676445281006E-04  1.13375748435492E-02
 cg2d: Sum(rhs),rhsMax =   3.92746090569570E-04  1.13382625859993E-02
 cg2d: Sum(rhs),rhsMax =   3.92815575481148E-04  1.13389498624162E-02
 cg2d: Sum(rhs),rhsMax =   3.92884946358087E-04  1.13396366689035E-02
 cg2d: Sum(rhs),rhsMax =   3.92954186769105E-04  1.13403230105367E-02
 cg2d: Sum(rhs),rhsMax =   3.93023279186838E-04  1.13410088838880E-02
 cg2d: Sum(rhs),rhsMax =   3.93092248049981E-04  1.13416942929778E-02
 cg2d: Sum(rhs),rhsMax =   3.93161085700146E-04  1.13423792348587E-02
 cg2d: Sum(rhs),rhsMax =   3.93229741306907E-04  1.13430637120459E-02
 cg2d: Sum(rhs),rhsMax =   3.93298301699258E-04  1.13437477255110E-02
 cg2d: Sum(rhs),rhsMax =   3.93366719109643E-04  1.13444312759791E-02
 cg2d: Sum(rhs),rhsMax =   3.93434993012762E-04  1.13451143605094E-02
 cg2d: Sum(rhs),rhsMax =   3.93503138809023E-04  1.13457969833407E-02
 cg2d: Sum(rhs),rhsMax =   3.93571132318400E-04  1.13464791413636E-02
 cg2d: Sum(rhs),rhsMax =   3.93638998372577E-04  1.13471608387522E-02
 cg2d: Sum(rhs),rhsMax =   3.93706722876279E-04  1.13478420727390E-02
 cg2d: Sum(rhs),rhsMax =   3.93774295002865E-04  1.13485228460852E-02
 cg2d: Sum(rhs),rhsMax =   3.93841752922910E-04  1.13492031583667E-02
 cg2d: Sum(rhs),rhsMax =   3.93909044971096E-04  1.13498830114165E-02
 cg2d: Sum(rhs),rhsMax =   3.93976220140540E-04  1.13505624030632E-02
 cg2d: Sum(rhs),rhsMax =   3.94043217183658E-04  1.13512413362046E-02
 cg2d: Sum(rhs),rhsMax =   3.94110094290658E-04  1.13519198088801E-02
 cg2d: Sum(rhs),rhsMax =   3.94176818097393E-04  1.13525978241157E-02
 cg2d: Sum(rhs),rhsMax =   3.94243437656512E-04  1.13532753806081E-02
 cg2d: Sum(rhs),rhsMax =   3.94309900116265E-04  1.13539524807089E-02
 cg2d: Sum(rhs),rhsMax =   3.94376222945763E-04  1.13546291221643E-02
 cg2d: Sum(rhs),rhsMax =   3.94442400164553E-04  1.13553053077237E-02
 cg2d: Sum(rhs),rhsMax =   3.94508428722271E-04  1.13559810368456E-02
 cg2d: Sum(rhs),rhsMax =   3.94574296809364E-04  1.13566563110045E-02
 cg2d: Sum(rhs),rhsMax =   3.94640006111275E-04  1.13573311289948E-02
 cg2d: Sum(rhs),rhsMax =   3.94705589852537E-04  1.13580054932580E-02
 cg2d: Sum(rhs),rhsMax =   3.94771029597597E-04  1.13586794026827E-02
 cg2d: Sum(rhs),rhsMax =   3.94836308591601E-04  1.13593528591136E-02
 cg2d: Sum(rhs),rhsMax =   3.94901480747049E-04  1.13600258619665E-02
 cg2d: Sum(rhs),rhsMax =   3.94966422377964E-04  1.13606984118537E-02
 cg2d: Sum(rhs),rhsMax =   3.95031254924287E-04  1.13613705103302E-02
 cg2d: Sum(rhs),rhsMax =   3.95095953180095E-04  1.13620421581303E-02
 cg2d: Sum(rhs),rhsMax =   3.95160500793587E-04  1.13627133532697E-02
 cg2d: Sum(rhs),rhsMax =   3.95224920296021E-04  1.13633840991707E-02
 cg2d: Sum(rhs),rhsMax =   3.95289161392380E-04  1.13640543932308E-02
 cg2d: Sum(rhs),rhsMax =   3.95353280469348E-04  1.13647242391862E-02
 cg2d: Sum(rhs),rhsMax =   3.95417218617189E-04  1.13653936347605E-02
 cg2d: Sum(rhs),rhsMax =   3.95492531738557E-04  1.13660625832399E-02
 cg2d: Sum(rhs),rhsMax =   3.95567647525680E-04  1.13667310836513E-02
 cg2d: Sum(rhs),rhsMax =   3.95642627477204E-04  1.13673991355184E-02
 cg2d: Sum(rhs),rhsMax =   3.95717354500088E-04  1.13680667405533E-02
 cg2d: Sum(rhs),rhsMax =   3.95791939465071E-04  1.13687339008880E-02
 cg2d: Sum(rhs),rhsMax =   3.95866331738402E-04  1.13694006133403E-02
 cg2d: Sum(rhs),rhsMax =   3.95940538227718E-04  1.13700668829109E-02
 cg2d: Sum(rhs),rhsMax =   3.96014579051505E-04  1.13707327046071E-02
 cg2d: Sum(rhs),rhsMax =   3.96088400932327E-04  1.13713980848856E-02
 cg2d: Sum(rhs),rhsMax =   3.96162071998257E-04  1.13720630180193E-02
 cg2d: Sum(rhs),rhsMax =   3.96235536570191E-04  1.13727275119922E-02
 cg2d: Sum(rhs),rhsMax =   3.96308809742655E-04  1.13733915594161E-02
 cg2d: Sum(rhs),rhsMax =   3.96381849402466E-04  1.13740551697813E-02
 cg2d: Sum(rhs),rhsMax =   3.96454718618098E-04  1.13747183342536E-02
 cg2d: Sum(rhs),rhsMax =   3.96527421734643E-04  1.13753810607529E-02
 cg2d: Sum(rhs),rhsMax =   3.96599948373542E-04  1.13760433426000E-02
 cg2d: Sum(rhs),rhsMax =   3.96672270329291E-04  1.13767051900642E-02
 cg2d: Sum(rhs),rhsMax =   3.96744374558765E-04  1.13773665938746E-02
 cg2d: Sum(rhs),rhsMax =   3.96816319927489E-04  1.13780275630215E-02
(PID.TID 0000.0001)      cg2d_init_res =   4.16783509473064E-03
(PID.TID 0000.0001)      cg2d_iters(min,last) =      -1     374
(PID.TID 0000.0001)      cg2d_last_res =   9.84303169321449E-08
(PID.TID 0000.0001) // =======================================================
(PID.TID 0000.0001) // Begin MONITOR dynamic field statistics
(PID.TID 0000.0001) // =======================================================
(PID.TID 0000.0001) %MON time_tsnumber                =                  8784
(PID.TID 0000.0001) %MON time_secondsf                =   1.0540800000000E+07
(PID.TID 0000.0001) %MON dynstat_eta_max              =   9.9878306860928E-02
(PID.TID 0000.0001) %MON dynstat_eta_min              =  -2.3764009170146E-01
(PID.TID 0000.0001) %MON dynstat_eta_mean             =  -2.1490988865707E-08
(PID.TID 0000.0001) %MON dynstat_eta_sd               =   8.9664820293093E-02
(PID.TID 0000.0001) %MON dynstat_eta_del2             =   5.2292387776222E-07
(PID.TID 0000.0001) %MON dynstat_uvel_max             =   8.6598947034027E-02
(PID.TID 0000.0001) %MON dynstat_uvel_min             =  -1.0042536128773E-01
(PID.TID 0000.0001) %MON dynstat_uvel_mean            =  -1.7840122036321E-07
(PID.TID 0000.0001) %MON dynstat_uvel_sd              =   3.6798527170939E-02
(PID.TID 0000.0001) %MON dynstat_uvel_del2            =   8.3785826224538E-07
(PID.TID 0000.0001) %MON dynstat_vvel_max             =   9.5279831437169E-02
(PID.TID 0000.0001) %MON dynstat_vvel_min             =  -7.8541044998369E-02
(PID.TID 0000.0001) %MON dynstat_vvel_mean            =  -8.5712008412703E-08
(PID.TID 0000.0001) %MON dynstat_vvel_sd              =   3.3175978873211E-02
(PID.TID 0000.0001) %MON dynstat_vvel_del2            =   1.1072564982680E-06
(PID.TID 0000.0001) %MON dynstat_wvel_max             =   1.3973574617412E-08
(PID.TID 0000.0001) %MON dynstat_wvel_min             =  -1.9329969095998E-08
(PID.TID 0000.0001) %MON dynstat_wvel_mean            =   3.4604956035845E-21
(PID.TID 0000.0001) %MON dynstat_wvel_sd              =   6.6103334374872E-09
(PID.TID 0000.0001) %MON dynstat_wvel_del2            =   5.3117658950464E-14
(PID.TID 0000.0001) %MON dynstat_theta_max            =   2.0000000000000E+01
(PID.TID 0000.0001) %MON dynstat_theta_min            =   2.0000000000000E+01
(PID.TID 0000.0001) %MON dynstat_theta_mean           =   1.9999999999999E+01
(PID.TID 0000.0001) %MON dynstat_theta_sd             =   1.1972645097557E-12
(PID.TID 0000.0001) %MON dynstat_theta_del2           =   0.0000000000000E+00
(PID.TID 0000.0001) %MON dynstat_salt_max             =   3.0000000000000E+01
(PID.TID 0000.0001) %MON dynstat_salt_min             =   3.0000000000000E+01
(PID.TID 0000.0001) %MON dynstat_salt_mean            =   2.9999999999998E+01
(PID.TID 0000.0001) %MON dynstat_salt_sd              =   2.1529444893531E-12
(PID.TID 0000.0001) %MON dynstat_salt_del2            =   0.0000000000000E+00
(PID.TID 0000.0001) %MON trAdv_CFL_u_max              =   2.4100989372313E-02
(PID.TID 0000.0001) %MON trAdv_CFL_v_max              =   2.2864682282614E-02
(PID.TID 0000.0001) %MON trAdv_CFL_w_max              =   3.5131317554775E-09
(PID.TID 0000.0001) %MON advcfl_uvel_max              =   2.4102086709056E-02
(PID.TID 0000.0001) %MON advcfl_vvel_max              =   2.2867159544920E-02
(PID.TID 0000.0001) %MON advcfl_wvel_max              =   9.2783851660788E-09
(PID.TID 0000.0001) %MON advcfl_W_hf_max              =   0.0000000000000E+00
(PID.TID 0000.0001) %MON pe_b_mean                    =   8.2257961297991E-06
(PID.TID 0000.0001) %MON ke_max                       =   5.0444515437802E-03
(PID.TID 0000.0001) %MON ke_mean                      =   1.2218636449495E-03
(PID.TID 0000.0001) %MON ke_vol                       =   7.2529629296391E+15
(PID.TID 0000.0001) %MON vort_r_min                   =  -3.6143046240142E-06
(PID.TID 0000.0001) %MON vort_r_max                   =   2.8149783267948E-06
(PID.TID 0000.0001) %MON vort_a_mean                  =   1.0615000000000E-04
(PID.TID 0000.0001) %MON vort_a_sd                    =   3.6053731230189E-06
(PID.TID 0000.0001) %MON vort_p_mean                  =   1.1210870169429E-04
(PID.TID 0000.0001) %MON vort_p_sd                    =   2.1060716093635E-05
(PID.TID 0000.0001) %MON surfExpan_theta_mean         =   6.9212009894050E-20
(PID.TID 0000.0001) %MON surfExpan_salt_mean          =   1.0387550074950E-19
(PID.TID 0000.0001) // =======================================================
(PID.TID 0000.0001) // End MONITOR dynamic field statistics
(PID.TID 0000.0001) // =======================================================
 cg2d: Sum(rhs),rhsMax =   3.96888094699351E-04  1.13786880890254E-02
 cg2d: Sum(rhs),rhsMax =   3.96959666345257E-04  1.13793481824571E-02
 cg2d: Sum(rhs),rhsMax =   3.97031036855060E-04  1.13800078345310E-02
 cg2d: Sum(rhs),rhsMax =   3.97102199481870E-04  1.13806670545905E-02
 cg2d: Sum(rhs),rhsMax =   3.97173182005205E-04  1.13813258340162E-02
 cg2d: Sum(rhs),rhsMax =   3.97243976979092E-04  1.13819841831974E-02
 cg2d: Sum(rhs),rhsMax =   3.97314558744028E-04  1.13826420926575E-02
 cg2d: Sum(rhs),rhsMax =   3.97384925387921E-04  1.13832995732954E-02
 cg2d: Sum(rhs),rhsMax =   3.97455143079421E-04  1.13839566150241E-02
 cg2d: Sum(rhs),rhsMax =   3.97525113950340E-04  1.13846132283781E-02
 cg2d: Sum(rhs),rhsMax =   3.97594908336093E-04  1.13852694050036E-02
 cg2d: Sum(rhs),rhsMax =   3.97664494526745E-04  1.13859251550308E-02
 cg2d: Sum(rhs),rhsMax =   3.97733929689925E-04  1.13865804680319E-02
 cg2d: Sum(rhs),rhsMax =   3.97803161127013E-04  1.13872353559405E-02
 cg2d: Sum(rhs),rhsMax =   3.97872193208054E-04  1.13878898085338E-02
 cg2d: Sum(rhs),rhsMax =   3.97941043266507E-04  1.13885438370390E-02
 cg2d: Sum(rhs),rhsMax =   3.98009692170917E-04  1.13891974317811E-02
 cg2d: Sum(rhs),rhsMax =   3.98078125889790E-04  1.13898506030561E-02
 cg2d: Sum(rhs),rhsMax =   3.98146370028182E-04  1.13905033421460E-02
 cg2d: Sum(rhs),rhsMax =   3.98214427106896E-04  1.13911556585168E-02
 cg2d: Sum(rhs),rhsMax =   3.98282237807489E-04  1.13918075445425E-02
 cg2d: Sum(rhs),rhsMax =   3.98349915319640E-04  1.13924590082907E-02
 cg2d: Sum(rhs),rhsMax =   3.98417347066773E-04  1.13931100431449E-02
 cg2d: Sum(rhs),rhsMax =   3.98484605493134E-04  1.13937606573766E-02
 cg2d: Sum(rhs),rhsMax =   3.98551636512975E-04  1.13944108435592E-02
 cg2d: Sum(rhs),rhsMax =   3.98618499806361E-04  1.13950606107050E-02
 cg2d: Sum(rhs),rhsMax =   3.98685153826574E-04  1.13957099502624E-02
 cg2d: Sum(rhs),rhsMax =   3.98751595501170E-04  1.13963588730236E-02
 cg2d: Sum(rhs),rhsMax =   3.98817837158557E-04  1.13970073697711E-02
 cg2d: Sum(rhs),rhsMax =   3.98883849793114E-04  1.13976554496355E-02
 cg2d: Sum(rhs),rhsMax =   3.98949707860813E-04  1.13983031041499E-02
 cg2d: Sum(rhs),rhsMax =   3.99015323683312E-04  1.13989503442790E-02
 cg2d: Sum(rhs),rhsMax =   3.99080770528739E-04  1.13995971605765E-02
 cg2d: Sum(rhs),rhsMax =   3.99145983973396E-04  1.14002435638616E-02
 cg2d: Sum(rhs),rhsMax =   3.99211013460509E-04  1.14008895442932E-02
 cg2d: Sum(rhs),rhsMax =   3.99275803921243E-04  1.14015351124523E-02
 cg2d: Sum(rhs),rhsMax =   3.99340445265423E-04  1.14021802590156E-02
 cg2d: Sum(rhs),rhsMax =   3.99404848973946E-04  1.14028249949899E-02
 cg2d: Sum(rhs),rhsMax =   3.99469047589028E-04  1.14034693111586E-02
 cg2d: Sum(rhs),rhsMax =   3.99533050289086E-04  1.14041132167569E-02
 cg2d: Sum(rhs),rhsMax =   3.99596864323368E-04  1.14047567048134E-02
 cg2d: Sum(rhs),rhsMax =   3.99660497404395E-04  1.14053997834834E-02
 cg2d: Sum(rhs),rhsMax =   3.99723908349766E-04  1.14060424456182E-02
 cg2d: Sum(rhs),rhsMax =   3.99787133666871E-04  1.14066846995087E-02
 cg2d: Sum(rhs),rhsMax =   3.99850119563094E-04  1.14073265381089E-02
 cg2d: Sum(rhs),rhsMax =   3.99912928100449E-04  1.14079679701973E-02
 cg2d: Sum(rhs),rhsMax =   3.99975506646312E-04  1.14086089877866E-02
 cg2d: Sum(rhs),rhsMax =   4.00037907920451E-04  1.14092496010782E-02
 cg2d: Sum(rhs),rhsMax =   4.00100108736100E-04  1.14098898007371E-02
 cg2d: Sum(rhs),rhsMax =   4.00162087992329E-04  1.14105295975217E-02
 cg2d: Sum(rhs),rhsMax =   4.00223865814483E-04  1.14111689819676E-02
 cg2d: Sum(rhs),rhsMax =   4.00285437044999E-04  1.14118079645287E-02
 cg2d: Sum(rhs),rhsMax =   4.00346826478281E-04  1.14124465363816E-02
 cg2d: Sum(rhs),rhsMax =   4.00407979585793E-04  1.14130847072976E-02
 cg2d: Sum(rhs),rhsMax =   4.00468946402523E-04  1.14137224697265E-02
 cg2d: Sum(rhs),rhsMax =   4.00529684815123E-04  1.14143598321754E-02
 cg2d: Sum(rhs),rhsMax =   4.00590236336552E-04  1.14149967871607E-02
 cg2d: Sum(rhs),rhsMax =   4.00650570859156E-04  1.14156333431135E-02
 cg2d: Sum(rhs),rhsMax =   4.00710704318562E-04  1.14162694939294E-02
 cg2d: Sum(rhs),rhsMax =   4.00770630056429E-04  1.14169052464753E-02
 cg2d: Sum(rhs),rhsMax =   4.00830336358604E-04  1.14175405954412E-02
 cg2d: Sum(rhs),rhsMax =   4.00889872514708E-04  1.14181755469312E-02
 cg2d: Sum(rhs),rhsMax =   4.00949188922813E-04  1.14188100971190E-02
 cg2d: Sum(rhs),rhsMax =   4.01008301176512E-04  1.14194442508967E-02
 cg2d: Sum(rhs),rhsMax =   4.01067186047141E-04  1.14200780047055E-02
 cg2d: Sum(rhs),rhsMax =   4.01125872764309E-04  1.14207113636351E-02
 cg2d: Sum(rhs),rhsMax =   4.01184347318399E-04  1.14213443239317E-02
 cg2d: Sum(rhs),rhsMax =   4.01242645741918E-04  1.14219768909645E-02
 cg2d: Sum(rhs),rhsMax =   4.01300704685602E-04  1.14226090605521E-02
 cg2d: Sum(rhs),rhsMax =   4.01358579099276E-04  1.14232408374609E-02
 cg2d: Sum(rhs),rhsMax =   4.01416222540963E-04  1.14238722195800E-02
 cg2d: Sum(rhs),rhsMax =   4.01473700034542E-04  1.14245032091127E-02
(PID.TID 0000.0001)      cg2d_init_res =   4.12429188636748E-03
(PID.TID 0000.0001)      cg2d_iters(min,last) =      -1     374
(PID.TID 0000.0001)      cg2d_last_res =   9.19700268581418E-08
(PID.TID 0000.0001) // =======================================================
(PID.TID 0000.0001) // Begin MONITOR dynamic field statistics
(PID.TID 0000.0001) // =======================================================
(PID.TID 0000.0001) %MON time_tsnumber                =                  8856
(PID.TID 0000.0001) %MON time_secondsf                =   1.0627200000000E+07
(PID.TID 0000.0001) %MON dynstat_eta_max              =   1.0064011431639E-01
(PID.TID 0000.0001) %MON dynstat_eta_min              =  -2.3903535593079E-01
(PID.TID 0000.0001) %MON dynstat_eta_mean             =  -2.1831140785233E-08
(PID.TID 0000.0001) %MON dynstat_eta_sd               =   9.0087382568532E-02
(PID.TID 0000.0001) %MON dynstat_eta_del2             =   5.2570903523066E-07
(PID.TID 0000.0001) %MON dynstat_uvel_max             =   8.7309460915866E-02
(PID.TID 0000.0001) %MON dynstat_uvel_min             =  -1.0074873296629E-01
(PID.TID 0000.0001) %MON dynstat_uvel_mean            =  -1.6712657590103E-07
(PID.TID 0000.0001) %MON dynstat_uvel_sd              =   3.6970586184084E-02
(PID.TID 0000.0001) %MON dynstat_uvel_del2            =   8.3890894920299E-07
(PID.TID 0000.0001) %MON dynstat_vvel_max             =   9.6031470846180E-02
(PID.TID 0000.0001) %MON dynstat_vvel_min             =  -7.8931717530959E-02
(PID.TID 0000.0001) %MON dynstat_vvel_mean            =  -5.2411368423067E-08
(PID.TID 0000.0001) %MON dynstat_vvel_sd              =   3.3375062771722E-02
(PID.TID 0000.0001) %MON dynstat_vvel_del2            =   1.1151136467919E-06
(PID.TID 0000.0001) %MON dynstat_wvel_max             =   1.3241810859181E-08
(PID.TID 0000.0001) %MON dynstat_wvel_min             =  -1.9462820473127E-08
(PID.TID 0000.0001) %MON dynstat_wvel_mean            =  -8.4671126700031E-21
(PID.TID 0000.0001) %MON dynstat_wvel_sd              =   6.5456440200548E-09
(PID.TID 0000.0001) %MON dynstat_wvel_del2            =   5.2716116161818E-14
(PID.TID 0000.0001) %MON dynstat_theta_max            =   2.0000000000000E+01
(PID.TID 0000.0001) %MON dynstat_theta_min            =   2.0000000000000E+01
(PID.TID 0000.0001) %MON dynstat_theta_mean           =   1.9999999999999E+01
(PID.TID 0000.0001) %MON dynstat_theta_sd             =   1.1972645097557E-12
(PID.TID 0000.0001) %MON dynstat_theta_del2           =   0.0000000000000E+00
(PID.TID 0000.0001) %MON dynstat_salt_max             =   3.0000000000000E+01
(PID.TID 0000.0001) %MON dynstat_salt_min             =   3.0000000000000E+01
(PID.TID 0000.0001) %MON dynstat_salt_mean            =   2.9999999999998E+01
(PID.TID 0000.0001) %MON dynstat_salt_sd              =   2.1529444893531E-12
(PID.TID 0000.0001) %MON dynstat_salt_del2            =   0.0000000000000E+00
(PID.TID 0000.0001) %MON trAdv_CFL_u_max              =   2.4178636116548E-02
(PID.TID 0000.0001) %MON trAdv_CFL_v_max              =   2.3045021992252E-02
(PID.TID 0000.0001) %MON trAdv_CFL_w_max              =   3.3226310214811E-09
(PID.TID 0000.0001) %MON advcfl_uvel_max              =   2.4179695911909E-02
(PID.TID 0000.0001) %MON advcfl_vvel_max              =   2.3047553003083E-02
(PID.TID 0000.0001) %MON advcfl_wvel_max              =   9.3421538271010E-09
(PID.TID 0000.0001) %MON advcfl_W_hf_max              =   0.0000000000000E+00
(PID.TID 0000.0001) %MON pe_b_mean                    =   8.3035100327532E-06
(PID.TID 0000.0001) %MON ke_max                       =   5.0769501606254E-03
(PID.TID 0000.0001) %MON ke_mean                      =   1.2347761986368E-03
(PID.TID 0000.0001) %MON ke_vol                       =   7.2529629296391E+15
(PID.TID 0000.0001) %MON vort_r_min                   =  -3.6293339458018E-06
(PID.TID 0000.0001) %MON vort_r_max                   =   2.8382056059839E-06
(PID.TID 0000.0001) %MON vort_a_mean                  =   1.0615000000000E-04
(PID.TID 0000.0001) %MON vort_a_sd                    =   3.6057986620777E-06
(PID.TID 0000.0001) %MON vort_p_mean                  =   1.1210870169429E-04
(PID.TID 0000.0001) %MON vort_p_sd                    =   2.1060869568294E-05
(PID.TID 0000.0001) %MON surfExpan_theta_mean         =  -1.6931849684118E-19
(PID.TID 0000.0001) %MON surfExpan_salt_mean          =  -2.5399949973299E-19
(PID.TID 0000.0001) // =======================================================
(PID.TID 0000.0001) // End MONITOR dynamic field statistics
(PID.TID 0000.0001) // =======================================================
 cg2d: Sum(rhs),rhsMax =   4.01530907276139E-04  1.14251338064392E-02
 cg2d: Sum(rhs),rhsMax =   4.01587964317232E-04  1.14257640116433E-02
 cg2d: Sum(rhs),rhsMax =   4.01644798824128E-04  1.14263938265429E-02
 cg2d: Sum(rhs),rhsMax =   4.01701437776516E-04  1.14270232509492E-02
 cg2d: Sum(rhs),rhsMax =   4.01757847896747E-04  1.14276522856051E-02
 cg2d: Sum(rhs),rhsMax =   4.01814093649677E-04  1.14282809325849E-02
 cg2d: Sum(rhs),rhsMax =   4.01870106723573E-04  1.14289091902699E-02
 cg2d: Sum(rhs),rhsMax =   4.01925935662515E-04  1.14295370625489E-02
 cg2d: Sum(rhs),rhsMax =   4.01981514319624E-04  1.14301645466344E-02
 cg2d: Sum(rhs),rhsMax =   4.02036931231449E-04  1.14307916465894E-02
 cg2d: Sum(rhs),rhsMax =   4.02092116213153E-04  1.14314183591366E-02
 cg2d: Sum(rhs),rhsMax =   4.02147097419283E-04  1.14320446894525E-02
 cg2d: Sum(rhs),rhsMax =   4.02201891322729E-04  1.14326706341449E-02
 cg2d: Sum(rhs),rhsMax =   4.02256466312362E-04  1.14332961983758E-02
 cg2d: Sum(rhs),rhsMax =   4.02310834939268E-04  1.14339213764721E-02
 cg2d: Sum(rhs),rhsMax =   4.02364983259755E-04  1.14345461767336E-02
 cg2d: Sum(rhs),rhsMax =   4.02418970835771E-04  1.14351705938148E-02
 cg2d: Sum(rhs),rhsMax =   4.02472741178651E-04  1.14357946335058E-02
 cg2d: Sum(rhs),rhsMax =   4.02526302648044E-04  1.14364182903170E-02
 cg2d: Sum(rhs),rhsMax =   4.02579647457674E-04  1.14370415721218E-02
 cg2d: Sum(rhs),rhsMax =   4.02632824095502E-04  1.14376644731412E-02
 cg2d: Sum(rhs),rhsMax =   4.02685779407878E-04  1.14382870000008E-02
 cg2d: Sum(rhs),rhsMax =   4.02738537082231E-04  1.14389091477074E-02
 cg2d: Sum(rhs),rhsMax =   4.02791094934702E-04  1.14395309225123E-02
 cg2d: Sum(rhs),rhsMax =   4.02843451743937E-04  1.14401523197293E-02
 cg2d: Sum(rhs),rhsMax =   4.02895581143762E-04  1.14407733453489E-02
 cg2d: Sum(rhs),rhsMax =   4.02947523748070E-04  1.14413939949983E-02
 cg2d: Sum(rhs),rhsMax =   4.02999265852749E-04  1.14420142747365E-02
 cg2d: Sum(rhs),rhsMax =   4.03050810612192E-04  1.14426341793087E-02
 cg2d: Sum(rhs),rhsMax =   4.03102147861059E-04  1.14432537160009E-02
 cg2d: Sum(rhs),rhsMax =   4.03153300473972E-04  1.14438728796921E-02
 cg2d: Sum(rhs),rhsMax =   4.03204235673457E-04  1.14444916764695E-02
 cg2d: Sum(rhs),rhsMax =   4.03254975708376E-04  1.14451101019987E-02
 cg2d: Sum(rhs),rhsMax =   4.03305506020185E-04  1.14457281616487E-02
 cg2d: Sum(rhs),rhsMax =   4.03355849618991E-04  1.14463458519455E-02
 cg2d: Sum(rhs),rhsMax =   4.03405957215424E-04  1.14469631792161E-02
 cg2d: Sum(rhs),rhsMax =   4.03455899937850E-04  1.14475801363283E-02
 cg2d: Sum(rhs),rhsMax =   4.03505625192088E-04  1.14481967307399E-02
 cg2d: Sum(rhs),rhsMax =   4.03555175027168E-04  1.14488129593478E-02
 cg2d: Sum(rhs),rhsMax =   4.03604516383528E-04  1.14494288253875E-02
 cg2d: Sum(rhs),rhsMax =   4.03653673866671E-04  1.14500443290088E-02
 cg2d: Sum(rhs),rhsMax =   4.03702632356537E-04  1.14506594701591E-02
 cg2d: Sum(rhs),rhsMax =   4.03751369134928E-04  1.14512742517291E-02
 cg2d: Sum(rhs),rhsMax =   4.03799924412385E-04  1.14518886704691E-02
 cg2d: Sum(rhs),rhsMax =   4.03848250488351E-04  1.14525027308763E-02
 cg2d: Sum(rhs),rhsMax =   4.03896401691615E-04  1.14531164334990E-02
 cg2d: Sum(rhs),rhsMax =   4.03944374903020E-04  1.14537297744170E-02
 cg2d: Sum(rhs),rhsMax =   4.03992147412968E-04  1.14543427621164E-02
 cg2d: Sum(rhs),rhsMax =   4.04039723956079E-04  1.14549553896369E-02
 cg2d: Sum(rhs),rhsMax =   4.04087089113351E-04  1.14555676646506E-02
 cg2d: Sum(rhs),rhsMax =   4.04134285852205E-04  1.14561795823718E-02
 cg2d: Sum(rhs),rhsMax =   4.04181244037634E-04  1.14567911473945E-02
 cg2d: Sum(rhs),rhsMax =   4.04228065398056E-04  1.14574023596466E-02
 cg2d: Sum(rhs),rhsMax =   4.04274660697142E-04  1.14580132179139E-02
 cg2d: Sum(rhs),rhsMax =   4.04321082909758E-04  1.14586237259637E-02
 cg2d: Sum(rhs),rhsMax =   4.04367289963903E-04  1.14592338810254E-02
 cg2d: Sum(rhs),rhsMax =   4.04413310257996E-04  1.14598436877825E-02
 cg2d: Sum(rhs),rhsMax =   4.04459144933807E-04  1.14604531423503E-02
 cg2d: Sum(rhs),rhsMax =   4.04504763459075E-04  1.14610622521905E-02
 cg2d: Sum(rhs),rhsMax =   4.04550221696408E-04  1.14616710090056E-02
 cg2d: Sum(rhs),rhsMax =   4.04595466087478E-04  1.14622794245983E-02
 cg2d: Sum(rhs),rhsMax =   4.04640549360898E-04  1.14628874883995E-02
 cg2d: Sum(rhs),rhsMax =   4.04685416291175E-04  1.14634952132908E-02
 cg2d: Sum(rhs),rhsMax =   4.04730077275671E-04  1.14641025903223E-02
 cg2d: Sum(rhs),rhsMax =   4.04774570367214E-04  1.14647096216325E-02
 cg2d: Sum(rhs),rhsMax =   4.04818902441269E-04  1.14653163123341E-02
 cg2d: Sum(rhs),rhsMax =   4.04863021712375E-04  1.14659226584884E-02
 cg2d: Sum(rhs),rhsMax =   4.04906987429609E-04  1.14665286663272E-02
 cg2d: Sum(rhs),rhsMax =   4.04950749184493E-04  1.14671343307984E-02
 cg2d: Sum(rhs),rhsMax =   4.04994284163603E-04  1.14677396560567E-02
 cg2d: Sum(rhs),rhsMax =   4.05037671386971E-04  1.14683446451102E-02
 cg2d: Sum(rhs),rhsMax =   4.05080886794907E-04  1.14689492936546E-02
(PID.TID 0000.0001)      cg2d_init_res =   4.08274800437499E-03
(PID.TID 0000.0001)      cg2d_iters(min,last) =      -1     374
(PID.TID 0000.0001)      cg2d_last_res =   8.53054747050362E-08
(PID.TID 0000.0001) // =======================================================
(PID.TID 0000.0001) // Begin MONITOR dynamic field statistics
(PID.TID 0000.0001) // =======================================================
(PID.TID 0000.0001) %MON time_tsnumber                =                  8928
(PID.TID 0000.0001) %MON time_secondsf                =   1.0713600000000E+07
(PID.TID 0000.0001) %MON dynstat_eta_max              =   1.0143974860371E-01
(PID.TID 0000.0001) %MON dynstat_eta_min              =  -2.4040431533754E-01
(PID.TID 0000.0001) %MON dynstat_eta_mean             =  -2.2112128503345E-08
(PID.TID 0000.0001) %MON dynstat_eta_sd               =   9.0498725623933E-02
(PID.TID 0000.0001) %MON dynstat_eta_del2             =   5.2845151998173E-07
(PID.TID 0000.0001) %MON dynstat_uvel_max             =   8.7968938588395E-02
(PID.TID 0000.0001) %MON dynstat_uvel_min             =  -1.0106660875174E-01
(PID.TID 0000.0001) %MON dynstat_uvel_mean            =  -1.4859021647974E-07
(PID.TID 0000.0001) %MON dynstat_uvel_sd              =   3.7128471949631E-02
(PID.TID 0000.0001) %MON dynstat_uvel_del2            =   8.3976666758346E-07
(PID.TID 0000.0001) %MON dynstat_vvel_max             =   9.6797362438722E-02
(PID.TID 0000.0001) %MON dynstat_vvel_min             =  -7.9348238707376E-02
(PID.TID 0000.0001) %MON dynstat_vvel_mean            =  -2.1915982097001E-08
(PID.TID 0000.0001) %MON dynstat_vvel_sd              =   3.3584638493504E-02
(PID.TID 0000.0001) %MON dynstat_vvel_del2            =   1.1224850215363E-06
(PID.TID 0000.0001) %MON dynstat_wvel_max             =   1.2360645097215E-08
(PID.TID 0000.0001) %MON dynstat_wvel_min             =  -1.9531332831830E-08
(PID.TID 0000.0001) %MON dynstat_wvel_mean            =   1.3552330309186E-20
(PID.TID 0000.0001) %MON dynstat_wvel_sd              =   6.4780872096591E-09
(PID.TID 0000.0001) %MON dynstat_wvel_del2            =   5.2352634808008E-14
(PID.TID 0000.0001) %MON dynstat_theta_max            =   2.0000000000000E+01
(PID.TID 0000.0001) %MON dynstat_theta_min            =   2.0000000000000E+01
(PID.TID 0000.0001) %MON dynstat_theta_mean           =   1.9999999999999E+01
(PID.TID 0000.0001) %MON dynstat_theta_sd             =   1.1972645097557E-12
(PID.TID 0000.0001) %MON dynstat_theta_del2           =   0.0000000000000E+00
(PID.TID 0000.0001) %MON dynstat_salt_max             =   3.0000000000000E+01
(PID.TID 0000.0001) %MON dynstat_salt_min             =   3.0000000000000E+01
(PID.TID 0000.0001) %MON dynstat_salt_mean            =   2.9999999999998E+01
(PID.TID 0000.0001) %MON dynstat_salt_sd              =   2.1529444893531E-12
(PID.TID 0000.0001) %MON dynstat_salt_del2            =   0.0000000000000E+00
(PID.TID 0000.0001) %MON trAdv_CFL_u_max              =   2.4254938673259E-02
(PID.TID 0000.0001) %MON trAdv_CFL_v_max              =   2.3228794936716E-02
(PID.TID 0000.0001) %MON trAdv_CFL_w_max              =   3.0948166300152E-09
(PID.TID 0000.0001) %MON advcfl_uvel_max              =   2.4255986100419E-02
(PID.TID 0000.0001) %MON advcfl_vvel_max              =   2.3231366985293E-02
(PID.TID 0000.0001) %MON advcfl_wvel_max              =   9.3750397592783E-09
(PID.TID 0000.0001) %MON advcfl_W_hf_max              =   0.0000000000000E+00
(PID.TID 0000.0001) %MON pe_b_mean                    =   8.3795115539783E-06
(PID.TID 0000.0001) %MON ke_max                       =   5.1090070964501E-03
(PID.TID 0000.0001) %MON ke_mean                      =   1.2475844402845E-03
(PID.TID 0000.0001) %MON ke_vol                       =   7.2529629296391E+15
(PID.TID 0000.0001) %MON vort_r_min                   =  -3.6436384350997E-06
(PID.TID 0000.0001) %MON vort_r_max                   =   2.8604296084111E-06
(PID.TID 0000.0001) %MON vort_a_mean                  =   1.0615000000000E-04
(PID.TID 0000.0001) %MON vort_a_sd                    =   3.6062158862020E-06
(PID.TID 0000.0001) %MON vort_p_mean                  =   1.1210870169429E-04
(PID.TID 0000.0001) %MON vort_p_sd                    =   2.1061033855349E-05
(PID.TID 0000.0001) %MON surfExpan_theta_mean         =   2.7105628278692E-19
(PID.TID 0000.0001) %MON surfExpan_salt_mean          =   4.0657245741596E-19
(PID.TID 0000.0001) // =======================================================
(PID.TID 0000.0001) // End MONITOR dynamic field statistics
(PID.TID 0000.0001) // =======================================================
 cg2d: Sum(rhs),rhsMax =   4.05123916129001E-04  1.14695536066457E-02
 cg2d: Sum(rhs),rhsMax =   4.05166720203782E-04  1.14701575825726E-02
 cg2d: Sum(rhs),rhsMax =   4.05209393468088E-04  1.14707612214793E-02
 cg2d: Sum(rhs),rhsMax =   4.05251880120370E-04  1.14713645267123E-02
 cg2d: Sum(rhs),rhsMax =   4.05294190169041E-04  1.14719674967776E-02
 cg2d: Sum(rhs),rhsMax =   4.05336306360891E-04  1.14725701345433E-02
 cg2d: Sum(rhs),rhsMax =   4.05378250662905E-04  1.14731724390729E-02
 cg2d: Sum(rhs),rhsMax =   4.05419958451130E-04  1.14737744147702E-02
 cg2d: Sum(rhs),rhsMax =   4.05461519818410E-04  1.14743760570606E-02
 cg2d: Sum(rhs),rhsMax =   4.05502906276851E-04  1.14749773700511E-02
 cg2d: Sum(rhs),rhsMax =   4.05544136494457E-04  1.14755783540774E-02
 cg2d: Sum(rhs),rhsMax =   4.05585171222196E-04  1.14761790090108E-02
 cg2d: Sum(rhs),rhsMax =   4.05626039003182E-04  1.14767793384319E-02
 cg2d: Sum(rhs),rhsMax =   4.05666749663559E-04  1.14773793390075E-02
 cg2d: Sum(rhs),rhsMax =   4.05707268580996E-04  1.14779790162805E-02
 cg2d: Sum(rhs),rhsMax =   4.05747594845277E-04  1.14785783670688E-02
 cg2d: Sum(rhs),rhsMax =   4.05787750816268E-04  1.14791773945781E-02
 cg2d: Sum(rhs),rhsMax =   4.05827729951984E-04  1.14797760986233E-02
 cg2d: Sum(rhs),rhsMax =   4.05867554279210E-04  1.14803744803108E-02
 cg2d: Sum(rhs),rhsMax =   4.05907170707947E-04  1.14809725404712E-02
 cg2d: Sum(rhs),rhsMax =   4.05946620695322E-04  1.14815702801895E-02
 cg2d: Sum(rhs),rhsMax =   4.05994478558977E-04  1.14821676859235E-02
 cg2d: Sum(rhs),rhsMax =   4.06042134033859E-04  1.14827647889784E-02
 cg2d: Sum(rhs),rhsMax =   4.06089634075410E-04  1.14833615728304E-02
 cg2d: Sum(rhs),rhsMax =   4.06136928246302E-04  1.14839580378816E-02
 cg2d: Sum(rhs),rhsMax =   4.06184041643748E-04  1.14845541869216E-02
 cg2d: Sum(rhs),rhsMax =   4.06230946302110E-04  1.14851500174590E-02
 cg2d: Sum(rhs),rhsMax =   4.06277675895730E-04  1.14857455377571E-02
 cg2d: Sum(rhs),rhsMax =   4.06324192636988E-04  1.14863407427254E-02
 cg2d: Sum(rhs),rhsMax =   4.06370537511285E-04  1.14869356348613E-02
 cg2d: Sum(rhs),rhsMax =   4.06416710043756E-04  1.14875302141719E-02
 cg2d: Sum(rhs),rhsMax =   4.06462695444264E-04  1.14881244828263E-02
 cg2d: Sum(rhs),rhsMax =   4.06508491803830E-04  1.14887184407674E-02
 cg2d: Sum(rhs),rhsMax =   4.06554102460311E-04  1.14893120888656E-02
 cg2d: Sum(rhs),rhsMax =   4.06599507601820E-04  1.14899054281493E-02
 cg2d: Sum(rhs),rhsMax =   4.06644762699181E-04  1.14904984596358E-02
 cg2d: Sum(rhs),rhsMax =   4.06689818846976E-04  1.14910911834602E-02
 cg2d: Sum(rhs),rhsMax =   4.06734711792242E-04  1.14916836009991E-02
 cg2d: Sum(rhs),rhsMax =   4.06779422130712E-04  1.14922757130991E-02
 cg2d: Sum(rhs),rhsMax =   4.06823970478377E-04  1.14928675214211E-02
 cg2d: Sum(rhs),rhsMax =   4.06868316784199E-04  1.14934590244550E-02
 cg2d: Sum(rhs),rhsMax =   4.06912493347882E-04  1.14940502276938E-02
 cg2d: Sum(rhs),rhsMax =   4.06956480649619E-04  1.14946411282594E-02
 cg2d: Sum(rhs),rhsMax =   4.07000302377973E-04  1.14952317287352E-02
 cg2d: Sum(rhs),rhsMax =   4.07043966222818E-04  1.14958220288587E-02
 cg2d: Sum(rhs),rhsMax =   4.07097043834655E-04  1.14964120089207E-02
 cg2d: Sum(rhs),rhsMax =   4.07149875991776E-04  1.14970017130917E-02
 cg2d: Sum(rhs),rhsMax =   4.07202563663387E-04  1.14975911145794E-02
 cg2d: Sum(rhs),rhsMax =   4.07254986635989E-04  1.14981802244336E-02
 cg2d: Sum(rhs),rhsMax =   4.07307296303170E-04  1.14987690351471E-02
 cg2d: Sum(rhs),rhsMax =   4.07359397181362E-04  1.14993575532298E-02
 cg2d: Sum(rhs),rhsMax =   4.07411238940527E-04  1.14999457778328E-02
 cg2d: Sum(rhs),rhsMax =   4.07462956733631E-04  1.15005337064598E-02
 cg2d: Sum(rhs),rhsMax =   4.07514461458534E-04  1.15011213427741E-02
 cg2d: Sum(rhs),rhsMax =   4.07565799646320E-04  1.15017086904441E-02
 cg2d: Sum(rhs),rhsMax =   4.07616976236803E-04  1.15022957449478E-02
 cg2d: Sum(rhs),rhsMax =   4.07667934187693E-04  1.15028825133555E-02
 cg2d: Sum(rhs),rhsMax =   4.07718732784437E-04  1.15034689890839E-02
 cg2d: Sum(rhs),rhsMax =   4.07769340584157E-04  1.15040551810956E-02
 cg2d: Sum(rhs),rhsMax =   4.07819771221681E-04  1.15046410819204E-02
 cg2d: Sum(rhs),rhsMax =   4.07870008761326E-04  1.15052267012973E-02
 cg2d: Sum(rhs),rhsMax =   4.07920031255438E-04  1.15058120339000E-02
 cg2d: Sum(rhs),rhsMax =   4.07969908039096E-04  1.15063970790084E-02
 cg2d: Sum(rhs),rhsMax =   4.08019624892614E-04  1.15069818438227E-02
 cg2d: Sum(rhs),rhsMax =   4.08069146613272E-04  1.15075663254401E-02
 cg2d: Sum(rhs),rhsMax =   4.08118496038241E-04  1.15081505261376E-02
 cg2d: Sum(rhs),rhsMax =   4.08167681610132E-04  1.15087344448618E-02
 cg2d: Sum(rhs),rhsMax =   4.08216707817452E-04  1.15093180847714E-02
 cg2d: Sum(rhs),rhsMax =   4.08265548600319E-04  1.15099014457281E-02
 cg2d: Sum(rhs),rhsMax =   4.08314198520268E-04  1.15104845294081E-02
 cg2d: Sum(rhs),rhsMax =   4.08362680987961E-04  1.15110673340293E-02
 cg2d: Sum(rhs),rhsMax =   4.08411012938687E-04  1.15116498634929E-02
(PID.TID 0000.0001)      cg2d_init_res =   4.04218072135452E-03
(PID.TID 0000.0001)      cg2d_iters(min,last) =      -1     372
(PID.TID 0000.0001)      cg2d_last_res =   9.79344227130037E-08
(PID.TID 0000.0001) // =======================================================
(PID.TID 0000.0001) // Begin MONITOR dynamic field statistics
(PID.TID 0000.0001) // =======================================================
(PID.TID 0000.0001) %MON time_tsnumber                =                  9000
(PID.TID 0000.0001) %MON time_secondsf                =   1.0800000000000E+07
(PID.TID 0000.0001) %MON dynstat_eta_max              =   1.0225834385594E-01
(PID.TID 0000.0001) %MON dynstat_eta_min              =  -2.4175046829629E-01
(PID.TID 0000.0001) %MON dynstat_eta_mean             =  -2.2377127152782E-08
(PID.TID 0000.0001) %MON dynstat_eta_sd               =   9.0898555790244E-02
(PID.TID 0000.0001) %MON dynstat_eta_del2             =   5.3114336177743E-07
(PID.TID 0000.0001) %MON dynstat_uvel_max             =   8.8586394526099E-02
(PID.TID 0000.0001) %MON dynstat_uvel_min             =  -1.0137667234318E-01
(PID.TID 0000.0001) %MON dynstat_uvel_mean            =  -1.2359365643175E-07
(PID.TID 0000.0001) %MON dynstat_uvel_sd              =   3.7273153945947E-02
(PID.TID 0000.0001) %MON dynstat_uvel_del2            =   8.4053504816623E-07
(PID.TID 0000.0001) %MON dynstat_vvel_max             =   9.7573351919291E-02
(PID.TID 0000.0001) %MON dynstat_vvel_min             =  -7.9794306504344E-02
(PID.TID 0000.0001) %MON dynstat_vvel_mean            =   4.6141413462462E-09
(PID.TID 0000.0001) %MON dynstat_vvel_sd              =   3.3802909825254E-02
(PID.TID 0000.0001) %MON dynstat_vvel_del2            =   1.1292222060438E-06
(PID.TID 0000.0001) %MON dynstat_wvel_max             =   1.1365257280413E-08
(PID.TID 0000.0001) %MON dynstat_wvel_min             =  -1.9525939351879E-08
(PID.TID 0000.0001) %MON dynstat_wvel_mean            =   1.5261871307281E-21
(PID.TID 0000.0001) %MON dynstat_wvel_sd              =   6.4088112766645E-09
(PID.TID 0000.0001) %MON dynstat_wvel_del2            =   5.2396807332997E-14
(PID.TID 0000.0001) %MON dynstat_theta_max            =   2.0000000000000E+01
(PID.TID 0000.0001) %MON dynstat_theta_min            =   2.0000000000000E+01
(PID.TID 0000.0001) %MON dynstat_theta_mean           =   1.9999999999999E+01
(PID.TID 0000.0001) %MON dynstat_theta_sd             =   1.1972645097557E-12
(PID.TID 0000.0001) %MON dynstat_theta_del2           =   0.0000000000000E+00
(PID.TID 0000.0001) %MON dynstat_salt_max             =   3.0000000000000E+01
(PID.TID 0000.0001) %MON dynstat_salt_min             =   3.0000000000000E+01
(PID.TID 0000.0001) %MON dynstat_salt_mean            =   2.9999999999998E+01
(PID.TID 0000.0001) %MON dynstat_salt_sd              =   2.1529444893531E-12
(PID.TID 0000.0001) %MON dynstat_salt_del2            =   0.0000000000000E+00
(PID.TID 0000.0001) %MON trAdv_CFL_u_max              =   2.4329380316687E-02
(PID.TID 0000.0001) %MON trAdv_CFL_v_max              =   2.3415006233545E-02
(PID.TID 0000.0001) %MON trAdv_CFL_w_max              =   2.8394316862822E-09
(PID.TID 0000.0001) %MON advcfl_uvel_max              =   2.4330401362362E-02
(PID.TID 0000.0001) %MON advcfl_vvel_max              =   2.3417604460630E-02
(PID.TID 0000.0001) %MON advcfl_wvel_max              =   9.3724508889020E-09
(PID.TID 0000.0001) %MON advcfl_W_hf_max              =   0.0000000000000E+00
(PID.TID 0000.0001) %MON pe_b_mean                    =   8.4537177396151E-06
(PID.TID 0000.0001) %MON ke_max                       =   5.1404297343759E-03
(PID.TID 0000.0001) %MON ke_mean                      =   1.2602637805085E-03
(PID.TID 0000.0001) %MON ke_vol                       =   7.2529629296391E+15
(PID.TID 0000.0001) %MON vort_r_min                   =  -3.6573029090759E-06
(PID.TID 0000.0001) %MON vort_r_max                   =   2.8809051652835E-06
(PID.TID 0000.0001) %MON vort_a_mean                  =   1.0615000000000E-04
(PID.TID 0000.0001) %MON vort_a_sd                    =   3.6066235586385E-06
(PID.TID 0000.0001) %MON vort_p_mean                  =   1.1210870169429E-04
(PID.TID 0000.0001) %MON vort_p_sd                    =   2.1061205928962E-05
(PID.TID 0000.0001) %MON surfExpan_theta_mean         =   3.0585453016335E-20
(PID.TID 0000.0001) %MON surfExpan_salt_mean          =   4.5862624367220E-20
(PID.TID 0000.0001) // =======================================================
(PID.TID 0000.0001) // End MONITOR dynamic field statistics
(PID.TID 0000.0001) // =======================================================
 cg2d: Sum(rhs),rhsMax =   4.08459171406970E-04  1.15122321182993E-02
 cg2d: Sum(rhs),rhsMax =   4.08507187873894E-04  1.15128140975796E-02
 cg2d: Sum(rhs),rhsMax =   4.08555009661324E-04  1.15133958046174E-02
 cg2d: Sum(rhs),rhsMax =   4.08602683582391E-04  1.15139772378194E-02
 cg2d: Sum(rhs),rhsMax =   4.08650181713347E-04  1.15145584010841E-02
 cg2d: Sum(rhs),rhsMax =   4.08697543914375E-04  1.15151392917672E-02
 cg2d: Sum(rhs),rhsMax =   4.08744692459651E-04  1.15157199133288E-02
 cg2d: Sum(rhs),rhsMax =   4.08791736602250E-04  1.15163002645357E-02
 cg2d: Sum(rhs),rhsMax =   4.08838563920544E-04  1.15168803501366E-02
 cg2d: Sum(rhs),rhsMax =   4.08885292281504E-04  1.15174601663925E-02
 cg2d: Sum(rhs),rhsMax =   4.08931844127648E-04  1.15180397180975E-02
 cg2d: Sum(rhs),rhsMax =   4.08978262778768E-04  1.15186190037384E-02
 cg2d: Sum(rhs),rhsMax =   4.09024506040565E-04  1.15191980233102E-02
 cg2d: Sum(rhs),rhsMax =   4.09070612523632E-04  1.15197767807941E-02
 cg2d: Sum(rhs),rhsMax =   4.09116569674163E-04  1.15203552744934E-02
 cg2d: Sum(rhs),rhsMax =   4.09162353985545E-04  1.15209335103987E-02
 cg2d: Sum(rhs),rhsMax =   4.09208010346029E-04  1.15215114794036E-02
 cg2d: Sum(rhs),rhsMax =   4.09253518651525E-04  1.15220891946889E-02
 cg2d: Sum(rhs),rhsMax =   4.09298875351887E-04  1.15226666454780E-02
 cg2d: Sum(rhs),rhsMax =   4.09344094073656E-04  1.15232438443833E-02
 cg2d: Sum(rhs),rhsMax =   4.09389196051584E-04  1.15238207794694E-02
 cg2d: Sum(rhs),rhsMax =   4.09434130543725E-04  1.15243974628102E-02
 cg2d: Sum(rhs),rhsMax =   4.09478938289163E-04  1.15249738878437E-02
 cg2d: Sum(rhs),rhsMax =   4.09523611742242E-04  1.15255500615317E-02
 cg2d: Sum(rhs),rhsMax =   4.09568104778390E-04  1.15261259791671E-02
 cg2d: Sum(rhs),rhsMax =   4.09612511191055E-04  1.15267016462774E-02
 cg2d: Sum(rhs),rhsMax =   4.09656700275030E-04  1.15272770623302E-02
 cg2d: Sum(rhs),rhsMax =   4.09700792603525E-04  1.15278522266802E-02
 cg2d: Sum(rhs),rhsMax =   4.09744745598515E-04  1.15284271369648E-02
 cg2d: Sum(rhs),rhsMax =   4.09788594246967E-04  1.15290018033869E-02
 cg2d: Sum(rhs),rhsMax =   4.09832307562669E-04  1.15295762188627E-02
 cg2d: Sum(rhs),rhsMax =   4.09875861129711E-04  1.15301503907852E-02
 cg2d: Sum(rhs),rhsMax =   4.09919312476937E-04  1.15307243150309E-02
 cg2d: Sum(rhs),rhsMax =   4.09962619378744E-04  1.15312979939077E-02
 cg2d: Sum(rhs),rhsMax =   4.10005823672600E-04  1.15318714274315E-02
 cg2d: Sum(rhs),rhsMax =   4.10048899836686E-04  1.15324446194789E-02
 cg2d: Sum(rhs),rhsMax =   4.10091852761288E-04  1.15330175681703E-02
 cg2d: Sum(rhs),rhsMax =   4.10134667631273E-04  1.15335902755965E-02
 cg2d: Sum(rhs),rhsMax =   4.10177350810696E-04  1.15341627428836E-02
 cg2d: Sum(rhs),rhsMax =   4.10219875822095E-04  1.15347349730220E-02
 cg2d: Sum(rhs),rhsMax =   4.10262367051774E-04  1.15353069550992E-02
 cg2d: Sum(rhs),rhsMax =   4.10304689910660E-04  1.15358787083945E-02
 cg2d: Sum(rhs),rhsMax =   4.10346894333303E-04  1.15364502198237E-02
 cg2d: Sum(rhs),rhsMax =   4.10388995464153E-04  1.15370215012841E-02
 cg2d: Sum(rhs),rhsMax =   4.10430979231491E-04  1.15375925409873E-02
 cg2d: Sum(rhs),rhsMax =   4.10472862555434E-04  1.15381633526827E-02
 cg2d: Sum(rhs),rhsMax =   4.10514620515650E-04  1.15387339258447E-02
 cg2d: Sum(rhs),rhsMax =   4.10556216462039E-04  1.15393042730123E-02
 cg2d: Sum(rhs),rhsMax =   4.10597753315547E-04  1.15398743823700E-02
 cg2d: Sum(rhs),rhsMax =   4.10639172447942E-04  1.15404442650718E-02
 cg2d: Sum(rhs),rhsMax =   4.10680490989837E-04  1.15410139169271E-02
 cg2d: Sum(rhs),rhsMax =   4.10721713915575E-04  1.15415833422023E-02
 cg2d: Sum(rhs),rhsMax =   4.10762790666043E-04  1.15421525389297E-02
 cg2d: Sum(rhs),rhsMax =   4.10803799155710E-04  1.15427215093363E-02
 cg2d: Sum(rhs),rhsMax =   4.10844679582339E-04  1.15432902547247E-02
 cg2d: Sum(rhs),rhsMax =   4.10885458442022E-04  1.15438587734822E-02
 cg2d: Sum(rhs),rhsMax =   4.10926113772858E-04  1.15444270722223E-02
 cg2d: Sum(rhs),rhsMax =   4.10966664363884E-04  1.15449951433784E-02
 cg2d: Sum(rhs),rhsMax =   4.11007115866401E-04  1.15455629962899E-02
 cg2d: Sum(rhs),rhsMax =   4.11047515418622E-04  1.15461306237891E-02
 cg2d: Sum(rhs),rhsMax =   4.11087769235177E-04  1.15466980359340E-02
 cg2d: Sum(rhs),rhsMax =   4.11127948921928E-04  1.15472652257165E-02
 cg2d: Sum(rhs),rhsMax =   4.11168020912072E-04  1.15478322015980E-02
 cg2d: Sum(rhs),rhsMax =   4.11207980211496E-04  1.15483989559791E-02
 cg2d: Sum(rhs),rhsMax =   4.11247853378767E-04  1.15489654968982E-02
 cg2d: Sum(rhs),rhsMax =   4.11287617178855E-04  1.15495318208559E-02
 cg2d: Sum(rhs),rhsMax =   4.11327333973605E-04  1.15500979315816E-02
 cg2d: Sum(rhs),rhsMax =   4.11366927279052E-04  1.15506638277438E-02
 cg2d: Sum(rhs),rhsMax =   4.11406461051707E-04  1.15512295128982E-02
 cg2d: Sum(rhs),rhsMax =   4.11445842091114E-04  1.15517949859923E-02
 cg2d: Sum(rhs),rhsMax =   4.11485183593479E-04  1.15523602474794E-02
 cg2d: Sum(rhs),rhsMax =   4.11524430623455E-04  1.15529252991070E-02
(PID.TID 0000.0001)      cg2d_init_res =   4.00137750685169E-03
(PID.TID 0000.0001)      cg2d_iters(min,last) =      -1     372
(PID.TID 0000.0001)      cg2d_last_res =   9.42857154209448E-08
(PID.TID 0000.0001) // =======================================================
(PID.TID 0000.0001) // Begin MONITOR dynamic field statistics
(PID.TID 0000.0001) // =======================================================
(PID.TID 0000.0001) %MON time_tsnumber                =                  9072
(PID.TID 0000.0001) %MON time_secondsf                =   1.0886400000000E+07
(PID.TID 0000.0001) %MON dynstat_eta_max              =   1.0305653425305E-01
(PID.TID 0000.0001) %MON dynstat_eta_min              =  -2.4305649958974E-01
(PID.TID 0000.0001) %MON dynstat_eta_mean             =  -2.2628007154392E-08
(PID.TID 0000.0001) %MON dynstat_eta_sd               =   9.1286851037721E-02
(PID.TID 0000.0001) %MON dynstat_eta_del2             =   5.3377852998286E-07
(PID.TID 0000.0001) %MON dynstat_uvel_max             =   8.9159337240353E-02
(PID.TID 0000.0001) %MON dynstat_uvel_min             =  -1.0168548321553E-01
(PID.TID 0000.0001) %MON dynstat_uvel_mean            =  -9.3206706315062E-08
(PID.TID 0000.0001) %MON dynstat_uvel_sd              =   3.7406092027900E-02
(PID.TID 0000.0001) %MON dynstat_uvel_del2            =   8.4131147875183E-07
(PID.TID 0000.0001) %MON dynstat_vvel_max             =   9.8354731318601E-02
(PID.TID 0000.0001) %MON dynstat_vvel_min             =  -8.0272251140036E-02
(PID.TID 0000.0001) %MON dynstat_vvel_mean            =   2.6185741314663E-08
(PID.TID 0000.0001) %MON dynstat_vvel_sd              =   3.4027658357501E-02
(PID.TID 0000.0001) %MON dynstat_vvel_del2            =   1.1352092967381E-06
(PID.TID 0000.0001) %MON dynstat_wvel_max             =   1.0296525894664E-08
(PID.TID 0000.0001) %MON dynstat_wvel_min             =  -1.9431747605558E-08
(PID.TID 0000.0001) %MON dynstat_wvel_mean            =   2.0464228943918E-21
(PID.TID 0000.0001) %MON dynstat_wvel_sd              =   6.3396208579408E-09
(PID.TID 0000.0001) %MON dynstat_wvel_del2            =   5.2113830647272E-14
(PID.TID 0000.0001) %MON dynstat_theta_max            =   2.0000000000000E+01
(PID.TID 0000.0001) %MON dynstat_theta_min            =   2.0000000000000E+01
(PID.TID 0000.0001) %MON dynstat_theta_mean           =   1.9999999999999E+01
(PID.TID 0000.0001) %MON dynstat_theta_sd             =   1.1972645097557E-12
(PID.TID 0000.0001) %MON dynstat_theta_del2           =   0.0000000000000E+00
(PID.TID 0000.0001) %MON dynstat_salt_max             =   3.0000000000000E+01
(PID.TID 0000.0001) %MON dynstat_salt_min             =   3.0000000000000E+01
(PID.TID 0000.0001) %MON dynstat_salt_mean            =   2.9999999999998E+01
(PID.TID 0000.0001) %MON dynstat_salt_sd              =   2.1529444893531E-12
(PID.TID 0000.0001) %MON dynstat_salt_del2            =   0.0000000000000E+00
(PID.TID 0000.0001) %MON trAdv_CFL_u_max              =   2.4403494874732E-02
(PID.TID 0000.0001) %MON trAdv_CFL_v_max              =   2.3602527509914E-02
(PID.TID 0000.0001) %MON trAdv_CFL_w_max              =   2.5656690192193E-09
(PID.TID 0000.0001) %MON advcfl_uvel_max              =   2.4404515971727E-02
(PID.TID 0000.0001) %MON advcfl_vvel_max              =   2.3605135516464E-02
(PID.TID 0000.0001) %MON advcfl_wvel_max              =   9.3272388506681E-09
(PID.TID 0000.0001) %MON advcfl_W_hf_max              =   0.0000000000000E+00
(PID.TID 0000.0001) %MON pe_b_mean                    =   8.5260962163262E-06
(PID.TID 0000.0001) %MON ke_max                       =   5.1716916421271E-03
(PID.TID 0000.0001) %MON ke_mean                      =   1.2727933931035E-03
(PID.TID 0000.0001) %MON ke_vol                       =   7.2529629296391E+15
(PID.TID 0000.0001) %MON vort_r_min                   =  -3.6704267696420E-06
(PID.TID 0000.0001) %MON vort_r_max                   =   2.8990364970456E-06
(PID.TID 0000.0001) %MON vort_a_mean                  =   1.0615000000000E-04
(PID.TID 0000.0001) %MON vort_a_sd                    =   3.6070208832943E-06
(PID.TID 0000.0001) %MON vort_p_mean                  =   1.1210870169429E-04
(PID.TID 0000.0001) %MON vort_p_sd                    =   2.1061382453211E-05
(PID.TID 0000.0001) %MON surfExpan_theta_mean         =   4.0935598269351E-20
(PID.TID 0000.0001) %MON surfExpan_salt_mean          =   6.1428326603821E-20
(PID.TID 0000.0001) // =======================================================
(PID.TID 0000.0001) // End MONITOR dynamic field statistics
(PID.TID 0000.0001) // =======================================================
 cg2d: Sum(rhs),rhsMax =   4.11563601832088E-04  1.15534901445989E-02
 cg2d: Sum(rhs),rhsMax =   4.11602664695905E-04  1.15540547809125E-02
 cg2d: Sum(rhs),rhsMax =   4.11641666254996E-04  1.15546192110067E-02
 cg2d: Sum(rhs),rhsMax =   4.11680543178522E-04  1.15551834343493E-02
 cg2d: Sum(rhs),rhsMax =   4.11719361682042E-04  1.15557474534592E-02
 cg2d: Sum(rhs),rhsMax =   4.11758050337125E-04  1.15563112701938E-02
 cg2d: Sum(rhs),rhsMax =   4.11796722236041E-04  1.15568748785510E-02
 cg2d: Sum(rhs),rhsMax =   4.11835269780314E-04  1.15574382897208E-02
 cg2d: Sum(rhs),rhsMax =   4.11873771842354E-04  1.15580014968716E-02
 cg2d: Sum(rhs),rhsMax =   4.11912169247398E-04  1.15585645067854E-02
 cg2d: Sum(rhs),rhsMax =   4.11950494390752E-04  1.15591273151095E-02
 cg2d: Sum(rhs),rhsMax =   4.11988729887304E-04  1.15596899287991E-02
 cg2d: Sum(rhs),rhsMax =   4.12026908594033E-04  1.15602523399505E-02
 cg2d: Sum(rhs),rhsMax =   4.12064991620721E-04  1.15608145577499E-02
 cg2d: Sum(rhs),rhsMax =   4.12103000172448E-04  1.15613765790543E-02
 cg2d: Sum(rhs),rhsMax =   4.12140939392630E-04  1.15619384096730E-02
 cg2d: Sum(rhs),rhsMax =   4.12178786754442E-04  1.15625000419985E-02
 cg2d: Sum(rhs),rhsMax =   4.12216579998058E-04  1.15630614833934E-02
 cg2d: Sum(rhs),rhsMax =   4.12254280693608E-04  1.15636227317704E-02
 cg2d: Sum(rhs),rhsMax =   4.12291929100897E-04  1.15641837918093E-02
 cg2d: Sum(rhs),rhsMax =   4.12329485833652E-04  1.15647446612451E-02
 cg2d: Sum(rhs),rhsMax =   4.12367008833256E-04  1.15653053422666E-02
 cg2d: Sum(rhs),rhsMax =   4.12404444978719E-04  1.15658658347958E-02
 cg2d: Sum(rhs),rhsMax =   4.12441817362280E-04  1.15664261415797E-02
 cg2d: Sum(rhs),rhsMax =   4.12479076417487E-04  1.15669862615423E-02
 cg2d: Sum(rhs),rhsMax =   4.12516310764525E-04  1.15675461975182E-02
 cg2d: Sum(rhs),rhsMax =   4.12553459845358E-04  1.15681059491493E-02
 cg2d: Sum(rhs),rhsMax =   4.12590555850099E-04  1.15686655181124E-02
 cg2d: Sum(rhs),rhsMax =   4.12627575768362E-04  1.15692249052293E-02
 cg2d: Sum(rhs),rhsMax =   4.12664519930019E-04  1.15697841087401E-02
 cg2d: Sum(rhs),rhsMax =   4.12701405201126E-04  1.15703431335709E-02
 cg2d: Sum(rhs),rhsMax =   4.12738231617396E-04  1.15709019805000E-02
 cg2d: Sum(rhs),rhsMax =   4.12774994448232E-04  1.15714606476033E-02
 cg2d: Sum(rhs),rhsMax =   4.12811689668694E-04  1.15720191388211E-02
 cg2d: Sum(rhs),rhsMax =   4.12848311603440E-04  1.15725774518754E-02
 cg2d: Sum(rhs),rhsMax =   4.12884873679135E-04  1.15731355926905E-02
 cg2d: Sum(rhs),rhsMax =   4.12921387226614E-04  1.15736935537057E-02
 cg2d: Sum(rhs),rhsMax =   4.12957822005639E-04  1.15742513453322E-02
 cg2d: Sum(rhs),rhsMax =   4.12994193035582E-04  1.15748089614087E-02
 cg2d: Sum(rhs),rhsMax =   4.13030505803921E-04  1.15753664132645E-02
 cg2d: Sum(rhs),rhsMax =   4.13066773609895E-04  1.15759236861450E-02
 cg2d: Sum(rhs),rhsMax =   4.13102980624355E-04  1.15764807934929E-02
 cg2d: Sum(rhs),rhsMax =   4.13139134059378E-04  1.15770377283904E-02
 cg2d: Sum(rhs),rhsMax =   4.13175198818358E-04  1.15775945003873E-02
 cg2d: Sum(rhs),rhsMax =   4.13211235138331E-04  1.15781511013533E-02
 cg2d: Sum(rhs),rhsMax =   4.13247175756786E-04  1.15787075411199E-02
 cg2d: Sum(rhs),rhsMax =   4.13283091031027E-04  1.15792638124084E-02
 cg2d: Sum(rhs),rhsMax =   4.13318927195530E-04  1.15798199220293E-02
 cg2d: Sum(rhs),rhsMax =   4.13354675584345E-04  1.15803758655709E-02
 cg2d: Sum(rhs),rhsMax =   4.13390407748392E-04  1.15809316516879E-02
 cg2d: Sum(rhs),rhsMax =   4.13426063256167E-04  1.15814872724413E-02
 cg2d: Sum(rhs),rhsMax =   4.13461692056187E-04  1.15820427348447E-02
 cg2d: Sum(rhs),rhsMax =   4.13497244556537E-04  1.15825980366129E-02
 cg2d: Sum(rhs),rhsMax =   4.13532745438264E-04  1.15831531826780E-02
 cg2d: Sum(rhs),rhsMax =   4.13568200765766E-04  1.15837081697210E-02
 cg2d: Sum(rhs),rhsMax =   4.13603587613304E-04  1.15842630019938E-02
 cg2d: Sum(rhs),rhsMax =   4.13638910772639E-04  1.15848176781601E-02
 cg2d: Sum(rhs),rhsMax =   4.13674195159195E-04  1.15853722011499E-02
 cg2d: Sum(rhs),rhsMax =   4.13709419037981E-04  1.15859265691775E-02
 cg2d: Sum(rhs),rhsMax =   4.13744552459782E-04  1.15864807884396E-02
 cg2d: Sum(rhs),rhsMax =   4.13779653220848E-04  1.15870348466637E-02
 cg2d: Sum(rhs),rhsMax =   4.13814704925202E-04  1.15875887642664E-02
 cg2d: Sum(rhs),rhsMax =   4.13849688677553E-04  1.15881425255116E-02
 cg2d: Sum(rhs),rhsMax =   4.13884610931666E-04  1.15886961441013E-02
 cg2d: Sum(rhs),rhsMax =   4.13919497795573E-04  1.15892496108909E-02
 cg2d: Sum(rhs),rhsMax =   4.13954330025274E-04  1.15898029341769E-02
 cg2d: Sum(rhs),rhsMax =   4.13989084797423E-04  1.15903561071326E-02
 cg2d: Sum(rhs),rhsMax =   4.14023807615974E-04  1.15909091409648E-02
 cg2d: Sum(rhs),rhsMax =   4.14058451393052E-04  1.15914620268899E-02
 cg2d: Sum(rhs),rhsMax =   4.14093032838129E-04  1.15920147731069E-02
 cg2d: Sum(rhs),rhsMax =   4.14127594977444E-04  1.15925673726600E-02
 cg2d: Sum(rhs),rhsMax =   4.14162028269844E-04  1.15931198367905E-02
(PID.TID 0000.0001)      cg2d_init_res =   3.95918163548469E-03
(PID.TID 0000.0001)      cg2d_iters(min,last) =      -1     372
(PID.TID 0000.0001)      cg2d_last_res =   9.12999163217164E-08
(PID.TID 0000.0001) // =======================================================
(PID.TID 0000.0001) // Begin MONITOR dynamic field statistics
(PID.TID 0000.0001) // =======================================================
(PID.TID 0000.0001) %MON time_tsnumber                =                  9144
(PID.TID 0000.0001) %MON time_secondsf                =   1.0972800000000E+07
(PID.TID 0000.0001) %MON dynstat_eta_max              =   1.0381363000780E-01
(PID.TID 0000.0001) %MON dynstat_eta_min              =  -2.4431879737948E-01
(PID.TID 0000.0001) %MON dynstat_eta_mean             =  -2.2851963338286E-08
(PID.TID 0000.0001) %MON dynstat_eta_sd               =   9.1663864962059E-02
(PID.TID 0000.0001) %MON dynstat_eta_del2             =   5.3635312819396E-07
(PID.TID 0000.0001) %MON dynstat_uvel_max             =   8.9688601386700E-02
(PID.TID 0000.0001) %MON dynstat_uvel_min             =  -1.0198959817508E-01
(PID.TID 0000.0001) %MON dynstat_uvel_mean            =  -5.8719370721516E-08
(PID.TID 0000.0001) %MON dynstat_uvel_sd              =   3.7529157091724E-02
(PID.TID 0000.0001) %MON dynstat_uvel_del2            =   8.4218229010046E-07
(PID.TID 0000.0001) %MON dynstat_vvel_max             =   9.9136430578688E-02
(PID.TID 0000.0001) %MON dynstat_vvel_min             =  -8.0782927890966E-02
(PID.TID 0000.0001) %MON dynstat_vvel_mean            =   4.2012919849017E-08
(PID.TID 0000.0001) %MON dynstat_vvel_sd              =   3.4256365844195E-02
(PID.TID 0000.0001) %MON dynstat_vvel_del2            =   1.1403662109452E-06
(PID.TID 0000.0001) %MON dynstat_wvel_max             =   9.1892032371834E-09
(PID.TID 0000.0001) %MON dynstat_wvel_min             =  -1.9238229936454E-08
(PID.TID 0000.0001) %MON dynstat_wvel_mean            =  -1.2343713251163E-20
(PID.TID 0000.0001) %MON dynstat_wvel_sd              =   6.2726754078846E-09
(PID.TID 0000.0001) %MON dynstat_wvel_del2            =   5.1840535782562E-14
(PID.TID 0000.0001) %MON dynstat_theta_max            =   2.0000000000000E+01
(PID.TID 0000.0001) %MON dynstat_theta_min            =   2.0000000000000E+01
(PID.TID 0000.0001) %MON dynstat_theta_mean           =   1.9999999999999E+01
(PID.TID 0000.0001) %MON dynstat_theta_sd             =   1.1972645097557E-12
(PID.TID 0000.0001) %MON dynstat_theta_del2           =   0.0000000000000E+00
(PID.TID 0000.0001) %MON dynstat_salt_max             =   3.0000000000000E+01
(PID.TID 0000.0001) %MON dynstat_salt_min             =   3.0000000000000E+01
(PID.TID 0000.0001) %MON dynstat_salt_mean            =   2.9999999999998E+01
(PID.TID 0000.0001) %MON dynstat_salt_sd              =   2.1529444893531E-12
(PID.TID 0000.0001) %MON dynstat_salt_del2            =   0.0000000000000E+00
(PID.TID 0000.0001) %MON trAdv_CFL_u_max              =   2.4476495963540E-02
(PID.TID 0000.0001) %MON trAdv_CFL_v_max              =   2.3790142828358E-02
(PID.TID 0000.0001) %MON trAdv_CFL_w_max              =   2.2839058248730E-09
(PID.TID 0000.0001) %MON advcfl_uvel_max              =   2.4477503562020E-02
(PID.TID 0000.0001) %MON advcfl_vvel_max              =   2.3792743338885E-02
(PID.TID 0000.0001) %MON advcfl_wvel_max              =   9.2343503694981E-09
(PID.TID 0000.0001) %MON advcfl_W_hf_max              =   0.0000000000000E+00
(PID.TID 0000.0001) %MON pe_b_mean                    =   8.5966670553311E-06
(PID.TID 0000.0001) %MON ke_max                       =   5.2027159886146E-03
(PID.TID 0000.0001) %MON ke_mean                      =   1.2851569776393E-03
(PID.TID 0000.0001) %MON ke_vol                       =   7.2529629296391E+15
(PID.TID 0000.0001) %MON vort_r_min                   =  -3.6831202142309E-06
(PID.TID 0000.0001) %MON vort_r_max                   =   2.9144831264017E-06
(PID.TID 0000.0001) %MON vort_a_mean                  =   1.0615000000000E-04
(PID.TID 0000.0001) %MON vort_a_sd                    =   3.6074075270305E-06
(PID.TID 0000.0001) %MON vort_p_mean                  =   1.1210870169429E-04
(PID.TID 0000.0001) %MON vort_p_sd                    =   2.1061559919261E-05
(PID.TID 0000.0001) %MON surfExpan_theta_mean         =  -2.4690446586521E-19
(PID.TID 0000.0001) %MON surfExpan_salt_mean          =  -3.7034794440783E-19
(PID.TID 0000.0001) // =======================================================
(PID.TID 0000.0001) // End MONITOR dynamic field statistics
(PID.TID 0000.0001) // =======================================================
 cg2d: Sum(rhs),rhsMax =   4.14196445092574E-04  1.15936721562572E-02
 cg2d: Sum(rhs),rhsMax =   4.14230772744549E-04  1.15942243397998E-02
 cg2d: Sum(rhs),rhsMax =   4.14265094121211E-04  1.15947763810211E-02
 cg2d: Sum(rhs),rhsMax =   4.14299337905724E-04  1.15953282905854E-02
 cg2d: Sum(rhs),rhsMax =   4.14333536413005E-04  1.15958800600420E-02
 cg2d: Sum(rhs),rhsMax =   4.14367668879992E-04  1.15964316977655E-02
 cg2d: Sum(rhs),rhsMax =   4.14401746768414E-04  1.15969831974524E-02
 cg2d: Sum(rhs),rhsMax =   4.14435757998604E-04  1.15975345667322E-02
 cg2d: Sum(rhs),rhsMax =   4.14469679072440E-04  1.15980858008143E-02
 cg2d: Sum(rhs),rhsMax =   4.14503559614664E-04  1.15986369049201E-02
 cg2d: Sum(rhs),rhsMax =   4.14537391670826E-04  1.15991878793702E-02
 cg2d: Sum(rhs),rhsMax =   4.14571175356596E-04  1.15997387223736E-02
 cg2d: Sum(rhs),rhsMax =   4.14604861425010E-04  1.16002894381521E-02
 cg2d: Sum(rhs),rhsMax =   4.14638528439612E-04  1.16008400266107E-02
 cg2d: Sum(rhs),rhsMax =   4.14672098634663E-04  1.16013904873677E-02
 cg2d: Sum(rhs),rhsMax =   4.14705595540684E-04  1.16019408235128E-02
 cg2d: Sum(rhs),rhsMax =   4.14739044153649E-04  1.16024910337443E-02
 cg2d: Sum(rhs),rhsMax =   4.14772382751791E-04  1.16030411218466E-02
 cg2d: Sum(rhs),rhsMax =   4.14805683520623E-04  1.16035910861028E-02
 cg2d: Sum(rhs),rhsMax =   4.14838887580015E-04  1.16041409283420E-02
 cg2d: Sum(rhs),rhsMax =   4.14872059244519E-04  1.16046906479455E-02
 cg2d: Sum(rhs),rhsMax =   4.14905138260646E-04  1.16052402500958E-02
 cg2d: Sum(rhs),rhsMax =   4.14938191784949E-04  1.16057897322491E-02
 cg2d: Sum(rhs),rhsMax =   4.14971124733494E-04  1.16063390981444E-02
 cg2d: Sum(rhs),rhsMax =   4.15004006205942E-04  1.16068883438910E-02
 cg2d: Sum(rhs),rhsMax =   4.15036827751611E-04  1.16074374747658E-02
 cg2d: Sum(rhs),rhsMax =   4.15069541753523E-04  1.16079864911360E-02
 cg2d: Sum(rhs),rhsMax =   4.15102192369107E-04  1.16085353943339E-02
 cg2d: Sum(rhs),rhsMax =   4.15134730495096E-04  1.16090841814819E-02
 cg2d: Sum(rhs),rhsMax =   4.15167243390852E-04  1.16096328552667E-02
 cg2d: Sum(rhs),rhsMax =   4.15199637956977E-04  1.16101814205094E-02
 cg2d: Sum(rhs),rhsMax =   4.15231968126852E-04  1.16107298747551E-02
 cg2d: Sum(rhs),rhsMax =   4.15271616363165E-04  1.16112782245143E-02
 cg2d: Sum(rhs),rhsMax =   4.15311141986646E-04  1.16118264609160E-02
 cg2d: Sum(rhs),rhsMax =   4.15350566812120E-04  1.16123745881513E-02
 cg2d: Sum(rhs),rhsMax =   4.15389903672287E-04  1.16129226084247E-02
 cg2d: Sum(rhs),rhsMax =   4.15429120023800E-04  1.16134705247368E-02
 cg2d: Sum(rhs),rhsMax =   4.15468194177069E-04  1.16140183341778E-02
 cg2d: Sum(rhs),rhsMax =   4.15507179840785E-04  1.16145660422766E-02
 cg2d: Sum(rhs),rhsMax =   4.15545959158110E-04  1.16151136437917E-02
 cg2d: Sum(rhs),rhsMax =   4.15584651740578E-04  1.16156611473276E-02
 cg2d: Sum(rhs),rhsMax =   4.15623228182425E-04  1.16162085470766E-02
 cg2d: Sum(rhs),rhsMax =   4.15661704014724E-04  1.16167558503419E-02
 cg2d: Sum(rhs),rhsMax =   4.15700008080843E-04  1.16173030524545E-02
 cg2d: Sum(rhs),rhsMax =   4.15738202038933E-04  1.16178501541263E-02
 cg2d: Sum(rhs),rhsMax =   4.15776271242251E-04  1.16183971574453E-02
 cg2d: Sum(rhs),rhsMax =   4.15814199134487E-04  1.16189440683250E-02
 cg2d: Sum(rhs),rhsMax =   4.15851958626106E-04  1.16194908786833E-02
 cg2d: Sum(rhs),rhsMax =   4.15889606448460E-04  1.16200376020027E-02
 cg2d: Sum(rhs),rhsMax =   4.15927093737528E-04  1.16205842312714E-02
 cg2d: Sum(rhs),rhsMax =   4.15964454021988E-04  1.16211307658761E-02
 cg2d: Sum(rhs),rhsMax =   4.16001645609466E-04  1.16216772083297E-02
 cg2d: Sum(rhs),rhsMax =   4.16038714255291E-04  1.16222235584644E-02
 cg2d: Sum(rhs),rhsMax =   4.16075606577094E-04  1.16227698181127E-02
 cg2d: Sum(rhs),rhsMax =   4.16112333909785E-04  1.16233159916783E-02
 cg2d: Sum(rhs),rhsMax =   4.16148919305116E-04  1.16238620752730E-02
 cg2d: Sum(rhs),rhsMax =   4.16202555289421E-04  1.16244080981477E-02
 cg2d: Sum(rhs),rhsMax =   4.16255873466402E-04  1.16249540093728E-02
 cg2d: Sum(rhs),rhsMax =   4.16308901600913E-04  1.16254998354086E-02
 cg2d: Sum(rhs),rhsMax =   4.16361660886893E-04  1.16260455758224E-02
 cg2d: Sum(rhs),rhsMax =   4.16414113993785E-04  1.16265912360690E-02
 cg2d: Sum(rhs),rhsMax =   4.16466229093200E-04  1.16271368104067E-02
 cg2d: Sum(rhs),rhsMax =   4.16518074550870E-04  1.16276823085929E-02
 cg2d: Sum(rhs),rhsMax =   4.16569615855461E-04  1.16282277267429E-02
 cg2d: Sum(rhs),rhsMax =   4.16620862075159E-04  1.16287730635629E-02
 cg2d: Sum(rhs),rhsMax =   4.16671752982696E-04  1.16293183217899E-02
 cg2d: Sum(rhs),rhsMax =   4.16722340490300E-04  1.16298635004446E-02
 cg2d: Sum(rhs),rhsMax =   4.16772621617012E-04  1.16304086030491E-02
 cg2d: Sum(rhs),rhsMax =   4.16822565307720E-04  1.16309536298336E-02
 cg2d: Sum(rhs),rhsMax =   4.16898877953853E-04  1.16314985529048E-02
 cg2d: Sum(rhs),rhsMax =   4.17003081145657E-04  1.16320434643952E-02
 cg2d: Sum(rhs),rhsMax =   4.17106256014300E-04  1.16325882708391E-02
(PID.TID 0000.0001)      cg2d_init_res =   3.91471270364585E-03
(PID.TID 0000.0001)      cg2d_iters(min,last) =      -1     363
(PID.TID 0000.0001)      cg2d_last_res =   9.82113639773249E-08
(PID.TID 0000.0001) // =======================================================
(PID.TID 0000.0001) // Begin MONITOR dynamic field statistics
(PID.TID 0000.0001) // =======================================================
(PID.TID 0000.0001) %MON time_tsnumber                =                  9216
(PID.TID 0000.0001) %MON time_secondsf                =   1.1059200000000E+07
(PID.TID 0000.0001) %MON dynstat_eta_max              =   1.0451445159009E-01
(PID.TID 0000.0001) %MON dynstat_eta_min              =  -2.4553503487233E-01
(PID.TID 0000.0001) %MON dynstat_eta_mean             =  -2.3096485517743E-08
(PID.TID 0000.0001) %MON dynstat_eta_sd               =   9.2030120671948E-02
(PID.TID 0000.0001) %MON dynstat_eta_del2             =   5.3886548858365E-07
(PID.TID 0000.0001) %MON dynstat_uvel_max             =   9.0179346246997E-02
(PID.TID 0000.0001) %MON dynstat_uvel_min             =  -1.0229718116183E-01
(PID.TID 0000.0001) %MON dynstat_uvel_mean            =  -2.1585243232118E-08
(PID.TID 0000.0001) %MON dynstat_uvel_sd              =   3.7644535786179E-02
(PID.TID 0000.0001) %MON dynstat_uvel_del2            =   8.4322001529755E-07
(PID.TID 0000.0001) %MON dynstat_vvel_max             =   9.9913221403927E-02
(PID.TID 0000.0001) %MON dynstat_vvel_min             =  -8.1325673329876E-02
(PID.TID 0000.0001) %MON dynstat_vvel_mean            =   5.1548172676773E-08
(PID.TID 0000.0001) %MON dynstat_vvel_sd              =   3.4486346366894E-02
(PID.TID 0000.0001) %MON dynstat_vvel_del2            =   1.1446500015583E-06
(PID.TID 0000.0001) %MON dynstat_wvel_max             =   9.4192056730390E-09
(PID.TID 0000.0001) %MON dynstat_wvel_min             =  -1.8940699636005E-08
(PID.TID 0000.0001) %MON dynstat_wvel_mean            =  -5.9140330326559E-21
(PID.TID 0000.0001) %MON dynstat_wvel_sd              =   6.2101146493454E-09
(PID.TID 0000.0001) %MON dynstat_wvel_del2            =   5.1656513364291E-14
(PID.TID 0000.0001) %MON dynstat_theta_max            =   2.0000000000000E+01
(PID.TID 0000.0001) %MON dynstat_theta_min            =   2.0000000000000E+01
(PID.TID 0000.0001) %MON dynstat_theta_mean           =   1.9999999999999E+01
(PID.TID 0000.0001) %MON dynstat_theta_sd             =   1.1972645097557E-12
(PID.TID 0000.0001) %MON dynstat_theta_del2           =   0.0000000000000E+00
(PID.TID 0000.0001) %MON dynstat_salt_max             =   3.0000000000000E+01
(PID.TID 0000.0001) %MON dynstat_salt_min             =   3.0000000000000E+01
(PID.TID 0000.0001) %MON dynstat_salt_mean            =   2.9999999999998E+01
(PID.TID 0000.0001) %MON dynstat_salt_sd              =   2.1529444893531E-12
(PID.TID 0000.0001) %MON dynstat_salt_del2            =   0.0000000000000E+00
(PID.TID 0000.0001) %MON trAdv_CFL_u_max              =   2.4550235435194E-02
(PID.TID 0000.0001) %MON trAdv_CFL_v_max              =   2.3976597583945E-02
(PID.TID 0000.0001) %MON trAdv_CFL_w_max              =   2.3580250498311E-09
(PID.TID 0000.0001) %MON advcfl_uvel_max              =   2.4551323478838E-02
(PID.TID 0000.0001) %MON advcfl_vvel_max              =   2.3979173136942E-02
(PID.TID 0000.0001) %MON advcfl_wvel_max              =   9.0915358252823E-09
(PID.TID 0000.0001) %MON advcfl_W_hf_max              =   0.0000000000000E+00
(PID.TID 0000.0001) %MON pe_b_mean                    =   8.6655026578358E-06
(PID.TID 0000.0001) %MON ke_max                       =   5.2339558094677E-03
(PID.TID 0000.0001) %MON ke_mean                      =   1.2973433378651E-03
(PID.TID 0000.0001) %MON ke_vol                       =   7.2529629296391E+15
(PID.TID 0000.0001) %MON vort_r_min                   =  -3.6954999583963E-06
(PID.TID 0000.0001) %MON vort_r_max                   =   2.9268047200852E-06
(PID.TID 0000.0001) %MON vort_a_mean                  =   1.0615000000000E-04
(PID.TID 0000.0001) %MON vort_a_sd                    =   3.6077836219981E-06
(PID.TID 0000.0001) %MON vort_p_mean                  =   1.1210870169429E-04
(PID.TID 0000.0001) %MON vort_p_sd                    =   2.1061734789971E-05
(PID.TID 0000.0001) %MON surfExpan_theta_mean         =  -1.1835148133148E-19
(PID.TID 0000.0001) %MON surfExpan_salt_mean          =  -1.7750754325926E-19
(PID.TID 0000.0001) // =======================================================
(PID.TID 0000.0001) // End MONITOR dynamic field statistics
(PID.TID 0000.0001) // =======================================================
 cg2d: Sum(rhs),rhsMax =   4.17208423764224E-04  1.16331330034911E-02
 cg2d: Sum(rhs),rhsMax =   4.17309553130279E-04  1.16336776666747E-02
 cg2d: Sum(rhs),rhsMax =   4.17409614647604E-04  1.16342222573797E-02
 cg2d: Sum(rhs),rhsMax =   4.17508690870786E-04  1.16347667821126E-02
 cg2d: Sum(rhs),rhsMax =   4.17606720684138E-04  1.16353112364775E-02
 cg2d: Sum(rhs),rhsMax =   4.17703762007835E-04  1.16358556246749E-02
 cg2d: Sum(rhs),rhsMax =   4.17799753378006E-04  1.16363999449979E-02
 cg2d: Sum(rhs),rhsMax =   4.17894750272400E-04  1.16369442006637E-02
 cg2d: Sum(rhs),rhsMax =   4.17988724299330E-04  1.16374883904993E-02
 cg2d: Sum(rhs),rhsMax =   4.18167000721946E-04  1.16380325091552E-02
 cg2d: Sum(rhs),rhsMax =   4.18350089766652E-04  1.16385765696124E-02
 cg2d: Sum(rhs),rhsMax =   4.18530805068424E-04  1.16391205697528E-02
 cg2d: Sum(rhs),rhsMax =   4.18709212725785E-04  1.16396645133875E-02
 cg2d: Sum(rhs),rhsMax =   4.18885316881008E-04  1.16402083921652E-02
 cg2d: Sum(rhs),rhsMax =   4.19059215192351E-04  1.16407522165248E-02
 cg2d: Sum(rhs),rhsMax =   4.19230871161063E-04  1.16412959780453E-02
 cg2d: Sum(rhs),rhsMax =   4.19400366766550E-04  1.16418396864746E-02
 cg2d: Sum(rhs),rhsMax =   4.19567718370024E-04  1.16423833352041E-02
 cg2d: Sum(rhs),rhsMax =   4.19733025715472E-04  1.16429269319565E-02
 cg2d: Sum(rhs),rhsMax =   4.19896317413069E-04  1.16434704719323E-02
 cg2d: Sum(rhs),rhsMax =   4.20057622238835E-04  1.16440139597838E-02
 cg2d: Sum(rhs),rhsMax =   4.20216998320060E-04  1.16445573927278E-02
 cg2d: Sum(rhs),rhsMax =   4.20374467630101E-04  1.16451007762289E-02
 cg2d: Sum(rhs),rhsMax =   4.20530109846530E-04  1.16456441035979E-02
 cg2d: Sum(rhs),rhsMax =   4.20683925009050E-04  1.16461873874060E-02
 cg2d: Sum(rhs),rhsMax =   4.20835999035097E-04  1.16467306190271E-02
 cg2d: Sum(rhs),rhsMax =   4.20986309159361E-04  1.16472738058755E-02
 cg2d: Sum(rhs),rhsMax =   4.21134972073323E-04  1.16478169401256E-02
 cg2d: Sum(rhs),rhsMax =   4.21281991244971E-04  1.16483600324639E-02
 cg2d: Sum(rhs),rhsMax =   4.21427431756350E-04  1.16489030780526E-02
 cg2d: Sum(rhs),rhsMax =   4.21571326781141E-04  1.16494460794995E-02
 cg2d: Sum(rhs),rhsMax =   4.21713700814058E-04  1.16499890349017E-02
 cg2d: Sum(rhs),rhsMax =   4.21854613717526E-04  1.16505319500941E-02
 cg2d: Sum(rhs),rhsMax =   4.21994060346979E-04  1.16510748250596E-02
 cg2d: Sum(rhs),rhsMax =   4.22132129231877E-04  1.16516176558637E-02
 cg2d: Sum(rhs),rhsMax =   4.22268840817960E-04  1.16521604462477E-02
 cg2d: Sum(rhs),rhsMax =   4.22404224367312E-04  1.16527031991974E-02
 cg2d: Sum(rhs),rhsMax =   4.22538313615139E-04  1.16532459131014E-02
 cg2d: Sum(rhs),rhsMax =   4.22671152853377E-04  1.16537885909961E-02
 cg2d: Sum(rhs),rhsMax =   4.22802770231785E-04  1.16543312311513E-02
 cg2d: Sum(rhs),rhsMax =   4.22933181977133E-04  1.16548738377019E-02
 cg2d: Sum(rhs),rhsMax =   4.23062442953497E-04  1.16554164070366E-02
 cg2d: Sum(rhs),rhsMax =   4.23190568721712E-04  1.16559589451808E-02
 cg2d: Sum(rhs),rhsMax =   4.23317598242972E-04  1.16565014453931E-02
 cg2d: Sum(rhs),rhsMax =   4.23443520436174E-04  1.16570439196567E-02
 cg2d: Sum(rhs),rhsMax =   4.23568439017346E-04  1.16575863596746E-02
 cg2d: Sum(rhs),rhsMax =   4.23692342577039E-04  1.16581287729224E-02
 cg2d: Sum(rhs),rhsMax =   4.23815247754603E-04  1.16586711536525E-02
 cg2d: Sum(rhs),rhsMax =   4.23937195404773E-04  1.16592135073250E-02
 cg2d: Sum(rhs),rhsMax =   4.24058240361496E-04  1.16597558313412E-02
 cg2d: Sum(rhs),rhsMax =   4.24178385223168E-04  1.16602981314810E-02
 cg2d: Sum(rhs),rhsMax =   4.24297684134141E-04  1.16608404034485E-02
 cg2d: Sum(rhs),rhsMax =   4.24416165864045E-04  1.16613826534749E-02
 cg2d: Sum(rhs),rhsMax =   4.24533851744987E-04  1.16619248767928E-02
 cg2d: Sum(rhs),rhsMax =   4.24650815297132E-04  1.16624670799668E-02
 cg2d: Sum(rhs),rhsMax =   4.24767087466828E-04  1.16630092585148E-02
 cg2d: Sum(rhs),rhsMax =   4.24882713783560E-04  1.16635514178353E-02
 cg2d: Sum(rhs),rhsMax =   4.24997777679703E-04  1.16640935538167E-02
 cg2d: Sum(rhs),rhsMax =   4.25112324394615E-04  1.16646356739984E-02
 cg2d: Sum(rhs),rhsMax =   4.25226456947691E-04  1.16651777701132E-02
 cg2d: Sum(rhs),rhsMax =   4.25340182923954E-04  1.16657198516324E-02
 cg2d: Sum(rhs),rhsMax =   4.25453650621575E-04  1.16662619140983E-02
 cg2d: Sum(rhs),rhsMax =   4.25566908227083E-04  1.16668039652692E-02
 cg2d: Sum(rhs),rhsMax =   4.25680089382740E-04  1.16673459963045E-02
 cg2d: Sum(rhs),rhsMax =   4.25793249173559E-04  1.16678880176677E-02
 cg2d: Sum(rhs),rhsMax =   4.25906506032621E-04  1.16684300206457E-02
 cg2d: Sum(rhs),rhsMax =   4.26019952796390E-04  1.16689720149840E-02
 cg2d: Sum(rhs),rhsMax =   4.26133745098410E-04  1.16695139952225E-02
 cg2d: Sum(rhs),rhsMax =   4.26247951272885E-04  1.16700559685221E-02
 cg2d: Sum(rhs),rhsMax =   4.26362707355661E-04  1.16705979271457E-02
 cg2d: Sum(rhs),rhsMax =   4.26478155475045E-04  1.16711398791071E-02
 cg2d: Sum(rhs),rhsMax =   4.26594389603092E-04  1.16716818203553E-02
(PID.TID 0000.0001)      cg2d_init_res =   3.86752664318024E-03
(PID.TID 0000.0001)      cg2d_iters(min,last) =      -1     354
(PID.TID 0000.0001)      cg2d_last_res =   9.90637468531826E-08
(PID.TID 0000.0001) // =======================================================
(PID.TID 0000.0001) // Begin MONITOR dynamic field statistics
(PID.TID 0000.0001) // =======================================================
(PID.TID 0000.0001) %MON time_tsnumber                =                  9288
(PID.TID 0000.0001) %MON time_secondsf                =   1.1145600000000E+07
(PID.TID 0000.0001) %MON dynstat_eta_max              =   1.0514778503615E-01
(PID.TID 0000.0001) %MON dynstat_eta_min              =  -2.4671739571372E-01
(PID.TID 0000.0001) %MON dynstat_eta_mean             =  -2.3701952596227E-08
(PID.TID 0000.0001) %MON dynstat_eta_sd               =   9.2386394191974E-02
(PID.TID 0000.0001) %MON dynstat_eta_del2             =   5.4131617332089E-07
(PID.TID 0000.0001) %MON dynstat_uvel_max             =   9.0637858637428E-02
(PID.TID 0000.0001) %MON dynstat_uvel_min             =  -1.0262529571684E-01
(PID.TID 0000.0001) %MON dynstat_uvel_mean            =   1.6641189341294E-08
(PID.TID 0000.0001) %MON dynstat_uvel_sd              =   3.7754625059120E-02
(PID.TID 0000.0001) %MON dynstat_uvel_del2            =   8.4448267597798E-07
(PID.TID 0000.0001) %MON dynstat_vvel_max             =   1.0069093258552E-01
(PID.TID 0000.0001) %MON dynstat_vvel_min             =  -8.1898431445597E-02
(PID.TID 0000.0001) %MON dynstat_vvel_mean            =   5.4504658355498E-08
(PID.TID 0000.0001) %MON dynstat_vvel_sd              =   3.4714879092953E-02
(PID.TID 0000.0001) %MON dynstat_vvel_del2            =   1.1480544236289E-06
(PID.TID 0000.0001) %MON dynstat_wvel_max             =   1.0169515190646E-08
(PID.TID 0000.0001) %MON dynstat_wvel_min             =  -1.8555806324584E-08
(PID.TID 0000.0001) %MON dynstat_wvel_mean            =  -8.8897635642141E-21
(PID.TID 0000.0001) %MON dynstat_wvel_sd              =   6.1536799245073E-09
(PID.TID 0000.0001) %MON dynstat_wvel_del2            =   5.1397924954288E-14
(PID.TID 0000.0001) %MON dynstat_theta_max            =   2.0000000000000E+01
(PID.TID 0000.0001) %MON dynstat_theta_min            =   2.0000000000000E+01
(PID.TID 0000.0001) %MON dynstat_theta_mean           =   1.9999999999999E+01
(PID.TID 0000.0001) %MON dynstat_theta_sd             =   1.1972645097557E-12
(PID.TID 0000.0001) %MON dynstat_theta_del2           =   0.0000000000000E+00
(PID.TID 0000.0001) %MON dynstat_salt_max             =   3.0000000000000E+01
(PID.TID 0000.0001) %MON dynstat_salt_min             =   3.0000000000000E+01
(PID.TID 0000.0001) %MON dynstat_salt_mean            =   2.9999999999998E+01
(PID.TID 0000.0001) %MON dynstat_salt_sd              =   2.1529444893531E-12
(PID.TID 0000.0001) %MON dynstat_salt_del2            =   0.0000000000000E+00
(PID.TID 0000.0001) %MON trAdv_CFL_u_max              =   2.4628962172786E-02
(PID.TID 0000.0001) %MON trAdv_CFL_v_max              =   2.4163226355878E-02
(PID.TID 0000.0001) %MON trAdv_CFL_w_max              =   2.5515518532941E-09
(PID.TID 0000.0001) %MON advcfl_uvel_max              =   2.4630070972041E-02
(PID.TID 0000.0001) %MON advcfl_vvel_max              =   2.4165823820526E-02
(PID.TID 0000.0001) %MON advcfl_wvel_max              =   8.9067870358005E-09
(PID.TID 0000.0001) %MON advcfl_W_hf_max              =   0.0000000000000E+00
(PID.TID 0000.0001) %MON pe_b_mean                    =   8.7327255404806E-06
(PID.TID 0000.0001) %MON ke_max                       =   5.2664545796164E-03
(PID.TID 0000.0001) %MON ke_mean                      =   1.3093467533552E-03
(PID.TID 0000.0001) %MON ke_vol                       =   7.2529629296391E+15
(PID.TID 0000.0001) %MON vort_r_min                   =  -3.7076846612933E-06
(PID.TID 0000.0001) %MON vort_r_max                   =   2.9357728757994E-06
(PID.TID 0000.0001) %MON vort_a_mean                  =   1.0615000000000E-04
(PID.TID 0000.0001) %MON vort_a_sd                    =   3.6081497492532E-06
(PID.TID 0000.0001) %MON vort_p_mean                  =   1.1210870169429E-04
(PID.TID 0000.0001) %MON vort_p_sd                    =   2.1061903645638E-05
(PID.TID 0000.0001) %MON surfExpan_theta_mean         =  -1.7791681539366E-19
(PID.TID 0000.0001) %MON surfExpan_salt_mean          =  -2.6687010383884E-19
(PID.TID 0000.0001) // =======================================================
(PID.TID 0000.0001) // End MONITOR dynamic field statistics
(PID.TID 0000.0001) // =======================================================
 cg2d: Sum(rhs),rhsMax =   4.26711515018123E-04  1.16722237565544E-02
 cg2d: Sum(rhs),rhsMax =   4.26829681875383E-04  1.16727656851313E-02
 cg2d: Sum(rhs),rhsMax =   4.26948955111386E-04  1.16733076102146E-02
 cg2d: Sum(rhs),rhsMax =   4.27069484671848E-04  1.16738495265755E-02
 cg2d: Sum(rhs),rhsMax =   4.27184286189935E-04  1.16743914434351E-02
 cg2d: Sum(rhs),rhsMax =   4.27300458224979E-04  1.16749333532010E-02
 cg2d: Sum(rhs),rhsMax =   4.27418139579515E-04  1.16754752641423E-02
 cg2d: Sum(rhs),rhsMax =   4.27537390019595E-04  1.16760171700648E-02
 cg2d: Sum(rhs),rhsMax =   4.27658346065488E-04  1.16765590794944E-02
 cg2d: Sum(rhs),rhsMax =   4.27781009550928E-04  1.16771009875509E-02
 cg2d: Sum(rhs),rhsMax =   4.27905509590664E-04  1.16776428990588E-02
 cg2d: Sum(rhs),rhsMax =   4.28031845835231E-04  1.16781848107702E-02
 cg2d: Sum(rhs),rhsMax =   4.28160126880312E-04  1.16787267243489E-02
 cg2d: Sum(rhs),rhsMax =   4.28290351500941E-04  1.16792686388035E-02
 cg2d: Sum(rhs),rhsMax =   4.28422595756327E-04  1.16798105632205E-02
 cg2d: Sum(rhs),rhsMax =   4.28514558322973E-04  1.16803524779664E-02
 cg2d: Sum(rhs),rhsMax =   4.28583494329636E-04  1.16808944293048E-02
 cg2d: Sum(rhs),rhsMax =   4.28653793290072E-04  1.16814363716760E-02
 cg2d: Sum(rhs),rhsMax =   4.28725516610738E-04  1.16819783181068E-02
 cg2d: Sum(rhs),rhsMax =   4.28798616706407E-04  1.16825202779234E-02
 cg2d: Sum(rhs),rhsMax =   4.28873104008919E-04  1.16830622437754E-02
 cg2d: Sum(rhs),rhsMax =   4.28948954557079E-04  1.16836042228276E-02
 cg2d: Sum(rhs),rhsMax =   4.29026216139711E-04  1.16841462127739E-02
 cg2d: Sum(rhs),rhsMax =   4.29104864254569E-04  1.16846882127707E-02
 cg2d: Sum(rhs),rhsMax =   4.29178027110171E-04  1.16852302317188E-02
 cg2d: Sum(rhs),rhsMax =   4.29252412902799E-04  1.16857722602481E-02
 cg2d: Sum(rhs),rhsMax =   4.29328072563453E-04  1.16863143027843E-02
 cg2d: Sum(rhs),rhsMax =   4.29404934426877E-04  1.16868563593826E-02
 cg2d: Sum(rhs),rhsMax =   4.29483006394714E-04  1.16873984346983E-02
 cg2d: Sum(rhs),rhsMax =   4.29562230923592E-04  1.16879405245250E-02
 cg2d: Sum(rhs),rhsMax =   4.29642655070277E-04  1.16884826343656E-02
 cg2d: Sum(rhs),rhsMax =   4.29724202111192E-04  1.16890247598664E-02
 cg2d: Sum(rhs),rhsMax =   4.29806866219228E-04  1.16895669087012E-02
 cg2d: Sum(rhs),rhsMax =   4.29890639619285E-04  1.16901090756314E-02
 cg2d: Sum(rhs),rhsMax =   4.29975477578729E-04  1.16906512663741E-02
 cg2d: Sum(rhs),rhsMax =   4.30061367401683E-04  1.16911934757085E-02
 cg2d: Sum(rhs),rhsMax =   4.30148299311334E-04  1.16917357121504E-02
 cg2d: Sum(rhs),rhsMax =   4.30236231618395E-04  1.16922779679299E-02
 cg2d: Sum(rhs),rhsMax =   4.30325166426070E-04  1.16928202527563E-02
 cg2d: Sum(rhs),rhsMax =   4.30414997466180E-04  1.16933625595297E-02
 cg2d: Sum(rhs),rhsMax =   4.30505809043386E-04  1.16939048949592E-02
 cg2d: Sum(rhs),rhsMax =   4.30597535924860E-04  1.16944472541684E-02
 cg2d: Sum(rhs),rhsMax =   4.30690166002954E-04  1.16949896437229E-02
 cg2d: Sum(rhs),rhsMax =   4.30783679561054E-04  1.16955320580718E-02
 cg2d: Sum(rhs),rhsMax =   4.30878046117352E-04  1.16960745052796E-02
 cg2d: Sum(rhs),rhsMax =   4.30973264354238E-04  1.16966169799118E-02
 cg2d: Sum(rhs),rhsMax =   4.31069263014242E-04  1.16971594884797E-02
 cg2d: Sum(rhs),rhsMax =   4.31166074517451E-04  1.16977020255875E-02
 cg2d: Sum(rhs),rhsMax =   4.31263624790568E-04  1.16982445958413E-02
 cg2d: Sum(rhs),rhsMax =   4.31361955881506E-04  1.16987871999742E-02
 cg2d: Sum(rhs),rhsMax =   4.31461019476704E-04  1.16993298408416E-02
 cg2d: Sum(rhs),rhsMax =   4.31560818563655E-04  1.16998725144297E-02
 cg2d: Sum(rhs),rhsMax =   4.31661317283798E-04  1.17004152268829E-02
 cg2d: Sum(rhs),rhsMax =   4.31762496976643E-04  1.17009579707833E-02
 cg2d: Sum(rhs),rhsMax =   4.31864345999608E-04  1.17015007539215E-02
 cg2d: Sum(rhs),rhsMax =   4.31966858176107E-04  1.17020435727401E-02
 cg2d: Sum(rhs),rhsMax =   4.32040882266876E-04  1.17025864024858E-02
 cg2d: Sum(rhs),rhsMax =   4.32115278929062E-04  1.17031293039414E-02
 cg2d: Sum(rhs),rhsMax =   4.32190153436235E-04  1.17036722420865E-02
 cg2d: Sum(rhs),rhsMax =   4.32265428286296E-04  1.17042152252117E-02
 cg2d: Sum(rhs),rhsMax =   4.32341125591928E-04  1.17047582472931E-02
 cg2d: Sum(rhs),rhsMax =   4.32417222713005E-04  1.17053013145517E-02
 cg2d: Sum(rhs),rhsMax =   4.32493679542099E-04  1.17058444240182E-02
 cg2d: Sum(rhs),rhsMax =   4.32570521683736E-04  1.17063875788426E-02
 cg2d: Sum(rhs),rhsMax =   4.32647753086841E-04  1.17069307784767E-02
 cg2d: Sum(rhs),rhsMax =   4.32725365987102E-04  1.17074740212917E-02
 cg2d: Sum(rhs),rhsMax =   4.32803341330825E-04  1.17080173146197E-02
 cg2d: Sum(rhs),rhsMax =   4.32881652088199E-04  1.17085606542366E-02
 cg2d: Sum(rhs),rhsMax =   4.32960327392861E-04  1.17091040445665E-02
 cg2d: Sum(rhs),rhsMax =   4.33039353997758E-04  1.17096474775772E-02
 cg2d: Sum(rhs),rhsMax =   4.33118706943746E-04  1.17101909658834E-02
 cg2d: Sum(rhs),rhsMax =   4.33170028359514E-04  1.17107345365277E-02
(PID.TID 0000.0001)      cg2d_init_res =   3.81769158417654E-03
(PID.TID 0000.0001)      cg2d_iters(min,last) =      -1     369
(PID.TID 0000.0001)      cg2d_last_res =   9.52751761532807E-08
(PID.TID 0000.0001) // =======================================================
(PID.TID 0000.0001) // Begin MONITOR dynamic field statistics
(PID.TID 0000.0001) // =======================================================
(PID.TID 0000.0001) %MON time_tsnumber                =                  9360
(PID.TID 0000.0001) %MON time_secondsf                =   1.1232000000000E+07
(PID.TID 0000.0001) %MON dynstat_eta_max              =   1.0570450474443E-01
(PID.TID 0000.0001) %MON dynstat_eta_min              =  -2.4785779516833E-01
(PID.TID 0000.0001) %MON dynstat_eta_mean             =  -2.4144072170693E-08
(PID.TID 0000.0001) %MON dynstat_eta_sd               =   9.2733687499182E-02
(PID.TID 0000.0001) %MON dynstat_eta_del2             =   5.4370789276981E-07
(PID.TID 0000.0001) %MON dynstat_uvel_max             =   9.1078091459904E-02
(PID.TID 0000.0001) %MON dynstat_uvel_min             =  -1.0295873216861E-01
(PID.TID 0000.0001) %MON dynstat_uvel_mean            =   5.4372711925394E-08
(PID.TID 0000.0001) %MON dynstat_uvel_sd              =   3.7861922401270E-02
(PID.TID 0000.0001) %MON dynstat_uvel_del2            =   8.4601471788725E-07
(PID.TID 0000.0001) %MON dynstat_vvel_max             =   1.0146252061288E-01
(PID.TID 0000.0001) %MON dynstat_vvel_min             =  -8.2508888501452E-02
(PID.TID 0000.0001) %MON dynstat_vvel_mean            =   5.0864598693913E-08
(PID.TID 0000.0001) %MON dynstat_vvel_sd              =   3.4939333559410E-02
(PID.TID 0000.0001) %MON dynstat_vvel_del2            =   1.1506080694048E-06
(PID.TID 0000.0001) %MON dynstat_wvel_max             =   1.0863499315456E-08
(PID.TID 0000.0001) %MON dynstat_wvel_min             =  -1.8089096015319E-08
(PID.TID 0000.0001) %MON dynstat_wvel_mean            =   7.5590373441534E-21
(PID.TID 0000.0001) %MON dynstat_wvel_sd              =   6.1044106188624E-09
(PID.TID 0000.0001) %MON dynstat_wvel_del2            =   5.1086217870763E-14
(PID.TID 0000.0001) %MON dynstat_theta_max            =   2.0000000000000E+01
(PID.TID 0000.0001) %MON dynstat_theta_min            =   2.0000000000000E+01
(PID.TID 0000.0001) %MON dynstat_theta_mean           =   1.9999999999999E+01
(PID.TID 0000.0001) %MON dynstat_theta_sd             =   1.1972645097557E-12
(PID.TID 0000.0001) %MON dynstat_theta_del2           =   0.0000000000000E+00
(PID.TID 0000.0001) %MON dynstat_salt_max             =   3.0000000000000E+01
(PID.TID 0000.0001) %MON dynstat_salt_min             =   3.0000000000000E+01
(PID.TID 0000.0001) %MON dynstat_salt_mean            =   2.9999999999998E+01
(PID.TID 0000.0001) %MON dynstat_salt_sd              =   2.1529444893531E-12
(PID.TID 0000.0001) %MON dynstat_salt_del2            =   0.0000000000000E+00
(PID.TID 0000.0001) %MON trAdv_CFL_u_max              =   2.4708980828700E-02
(PID.TID 0000.0001) %MON trAdv_CFL_v_max              =   2.4348460482979E-02
(PID.TID 0000.0001) %MON trAdv_CFL_w_max              =   2.7317638886259E-09
(PID.TID 0000.0001) %MON advcfl_uvel_max              =   2.4710095720466E-02
(PID.TID 0000.0001) %MON advcfl_vvel_max              =   2.4351004947091E-02
(PID.TID 0000.0001) %MON advcfl_wvel_max              =   8.6827660873532E-09
(PID.TID 0000.0001) %MON advcfl_W_hf_max              =   0.0000000000000E+00
(PID.TID 0000.0001) %MON pe_b_mean                    =   8.7985040038834E-06
(PID.TID 0000.0001) %MON ke_max                       =   5.3005053487115E-03
(PID.TID 0000.0001) %MON ke_mean                      =   1.3211671315941E-03
(PID.TID 0000.0001) %MON ke_vol                       =   7.2529629296391E+15
(PID.TID 0000.0001) %MON vort_r_min                   =  -3.7199902383838E-06
(PID.TID 0000.0001) %MON vort_r_max                   =   2.9413641576833E-06
(PID.TID 0000.0001) %MON vort_a_mean                  =   1.0615000000000E-04
(PID.TID 0000.0001) %MON vort_a_sd                    =   3.6085069058328E-06
(PID.TID 0000.0001) %MON vort_p_mean                  =   1.1210870169429E-04
(PID.TID 0000.0001) %MON vort_p_sd                    =   2.1062063325003E-05
(PID.TID 0000.0001) %MON surfExpan_theta_mean         =   1.5108911617435E-19
(PID.TID 0000.0001) %MON surfExpan_salt_mean          =   2.2663150459704E-19
(PID.TID 0000.0001) // =======================================================
(PID.TID 0000.0001) // End MONITOR dynamic field statistics
(PID.TID 0000.0001) // =======================================================
 cg2d: Sum(rhs),rhsMax =   4.33221584423807E-04  1.17112781258762E-02
 cg2d: Sum(rhs),rhsMax =   4.33273326391117E-04  1.17118217642600E-02
 cg2d: Sum(rhs),rhsMax =   4.33325265119458E-04  1.17123654573309E-02
 cg2d: Sum(rhs),rhsMax =   4.33377407121502E-04  1.17129092031404E-02
 cg2d: Sum(rhs),rhsMax =   4.33429733328352E-04  1.17134530036955E-02
 cg2d: Sum(rhs),rhsMax =   4.33482265987790E-04  1.17139968579318E-02
 cg2d: Sum(rhs),rhsMax =   4.33534940573696E-04  1.17145407647838E-02
 cg2d: Sum(rhs),rhsMax =   4.33587864001916E-04  1.17150847366943E-02
 cg2d: Sum(rhs),rhsMax =   4.33640936885108E-04  1.17156287631168E-02
 cg2d: Sum(rhs),rhsMax =   4.33694218482281E-04  1.17161728471848E-02
 cg2d: Sum(rhs),rhsMax =   4.33747672303824E-04  1.17167169894024E-02
 cg2d: Sum(rhs),rhsMax =   4.33801315353852E-04  1.17172611915836E-02
 cg2d: Sum(rhs),rhsMax =   4.33855148778806E-04  1.17178054541411E-02
 cg2d: Sum(rhs),rhsMax =   4.33909167519921E-04  1.17183497779117E-02
 cg2d: Sum(rhs),rhsMax =   4.33963334061213E-04  1.17188941631985E-02
 cg2d: Sum(rhs),rhsMax =   4.34017679535621E-04  1.17194386106019E-02
 cg2d: Sum(rhs),rhsMax =   4.34072176851296E-04  1.17199831179238E-02
 cg2d: Sum(rhs),rhsMax =   4.34126876627999E-04  1.17205276944407E-02
 cg2d: Sum(rhs),rhsMax =   4.34181742940272E-04  1.17210723350181E-02
 cg2d: Sum(rhs),rhsMax =   4.34236781795947E-04  1.17216170403941E-02
 cg2d: Sum(rhs),rhsMax =   4.34292007146321E-04  1.17221618114692E-02
 cg2d: Sum(rhs),rhsMax =   4.34347402617536E-04  1.17227066497754E-02
 cg2d: Sum(rhs),rhsMax =   4.34402925668506E-04  1.17232515555123E-02
 cg2d: Sum(rhs),rhsMax =   4.34458648045907E-04  1.17237965306808E-02
 cg2d: Sum(rhs),rhsMax =   4.34514491025662E-04  1.17243415739406E-02
 cg2d: Sum(rhs),rhsMax =   4.34570535366474E-04  1.17248866885331E-02
 cg2d: Sum(rhs),rhsMax =   4.34626665054496E-04  1.17254318733273E-02
 cg2d: Sum(rhs),rhsMax =   4.34683016706738E-04  1.17259771282395E-02
 cg2d: Sum(rhs),rhsMax =   4.34739499679104E-04  1.17265224541086E-02
 cg2d: Sum(rhs),rhsMax =   4.34796143781247E-04  1.17270678540909E-02
 cg2d: Sum(rhs),rhsMax =   4.34852937788213E-04  1.17276133263367E-02
 cg2d: Sum(rhs),rhsMax =   4.34909907469269E-04  1.17281588748615E-02
 cg2d: Sum(rhs),rhsMax =   4.34966991414936E-04  1.17287044968426E-02
 cg2d: Sum(rhs),rhsMax =   4.35024238300549E-04  1.17292501950578E-02
 cg2d: Sum(rhs),rhsMax =   4.35081613430366E-04  1.17297959686496E-02
 cg2d: Sum(rhs),rhsMax =   4.35139143912898E-04  1.17303418207062E-02
 cg2d: Sum(rhs),rhsMax =   4.35178000501602E-04  1.17308877268290E-02
 cg2d: Sum(rhs),rhsMax =   4.35216927984443E-04  1.17314337342326E-02
 cg2d: Sum(rhs),rhsMax =   4.35255948730923E-04  1.17319798207367E-02
 cg2d: Sum(rhs),rhsMax =   4.35295066755211E-04  1.17325259861530E-02
 cg2d: Sum(rhs),rhsMax =   4.35334198574102E-04  1.17330722307895E-02
 cg2d: Sum(rhs),rhsMax =   4.35373433955021E-04  1.17336185577935E-02
 cg2d: Sum(rhs),rhsMax =   4.35412769779178E-04  1.17341649668424E-02
 cg2d: Sum(rhs),rhsMax =   4.35452164536993E-04  1.17347114582799E-02
 cg2d: Sum(rhs),rhsMax =   4.35491634853272E-04  1.17352580349319E-02
 cg2d: Sum(rhs),rhsMax =   4.35531189595753E-04  1.17358046931925E-02
 cg2d: Sum(rhs),rhsMax =   4.35570791406943E-04  1.17363514382205E-02
 cg2d: Sum(rhs),rhsMax =   4.35610459230379E-04  1.17368982657733E-02
 cg2d: Sum(rhs),rhsMax =   4.35650180991128E-04  1.17374451824640E-02
 cg2d: Sum(rhs),rhsMax =   4.35689949461358E-04  1.17379921820418E-02
 cg2d: Sum(rhs),rhsMax =   4.35729781006054E-04  1.17385392727989E-02
 cg2d: Sum(rhs),rhsMax =   4.35769602213001E-04  1.17390864471010E-02
 cg2d: Sum(rhs),rhsMax =   4.35809515044188E-04  1.17396337137816E-02
 cg2d: Sum(rhs),rhsMax =   4.35849453974185E-04  1.17401810661945E-02
 cg2d: Sum(rhs),rhsMax =   4.35889470255713E-04  1.17407285136518E-02
 cg2d: Sum(rhs),rhsMax =   4.35929456809439E-04  1.17412760484318E-02
 cg2d: Sum(rhs),rhsMax =   4.35969494464755E-04  1.17418236751467E-02
 cg2d: Sum(rhs),rhsMax =   4.36009560069679E-04  1.17423713898475E-02
 cg2d: Sum(rhs),rhsMax =   4.36049668079372E-04  1.17429192023018E-02
 cg2d: Sum(rhs),rhsMax =   4.36089750023351E-04  1.17434671031801E-02
 cg2d: Sum(rhs),rhsMax =   4.36129877115225E-04  1.17440151048463E-02
 cg2d: Sum(rhs),rhsMax =   4.36169984004826E-04  1.17445631970513E-02
 cg2d: Sum(rhs),rhsMax =   4.36210100151173E-04  1.17451113861057E-02
 cg2d: Sum(rhs),rhsMax =   4.36250206458287E-04  1.17456596667113E-02
 cg2d: Sum(rhs),rhsMax =   4.36290306872384E-04  1.17462080494835E-02
 cg2d: Sum(rhs),rhsMax =   4.36330357116294E-04  1.17467565247512E-02
 cg2d: Sum(rhs),rhsMax =   4.36370396347295E-04  1.17473051014886E-02
 cg2d: Sum(rhs),rhsMax =   4.36410393382108E-04  1.17478537722612E-02
 cg2d: Sum(rhs),rhsMax =   4.36450359662725E-04  1.17484025487990E-02
 cg2d: Sum(rhs),rhsMax =   4.36490269172663E-04  1.17489514216335E-02
 cg2d: Sum(rhs),rhsMax =   4.36530126745166E-04  1.17495003953532E-02
 cg2d: Sum(rhs),rhsMax =   4.36569893293180E-04  1.17500494663548E-02
(PID.TID 0000.0001)      cg2d_init_res =   3.76577460367578E-03
(PID.TID 0000.0001)      cg2d_iters(min,last) =      -1     371
(PID.TID 0000.0001)      cg2d_last_res =   9.47392415554274E-08
(PID.TID 0000.0001) // =======================================================
(PID.TID 0000.0001) // Begin MONITOR dynamic field statistics
(PID.TID 0000.0001) // =======================================================
(PID.TID 0000.0001) %MON time_tsnumber                =                  9432
(PID.TID 0000.0001) %MON time_secondsf                =   1.1318400000000E+07
(PID.TID 0000.0001) %MON dynstat_eta_max              =   1.0617817861281E-01
(PID.TID 0000.0001) %MON dynstat_eta_min              =  -2.4895180559427E-01
(PID.TID 0000.0001) %MON dynstat_eta_mean             =  -2.4414592211132E-08
(PID.TID 0000.0001) %MON dynstat_eta_sd               =   9.3073191726179E-02
(PID.TID 0000.0001) %MON dynstat_eta_del2             =   5.4604535025323E-07
(PID.TID 0000.0001) %MON dynstat_uvel_max             =   9.1506842754974E-02
(PID.TID 0000.0001) %MON dynstat_uvel_min             =  -1.0329474178637E-01
(PID.TID 0000.0001) %MON dynstat_uvel_mean            =   9.0057752625899E-08
(PID.TID 0000.0001) %MON dynstat_uvel_sd              =   3.7968917149081E-02
(PID.TID 0000.0001) %MON dynstat_uvel_del2            =   8.4784898448682E-07
(PID.TID 0000.0001) %MON dynstat_vvel_max             =   1.0221581132813E-01
(PID.TID 0000.0001) %MON dynstat_vvel_min             =  -8.3141703900358E-02
(PID.TID 0000.0001) %MON dynstat_vvel_mean            =   4.0877795723645E-08
(PID.TID 0000.0001) %MON dynstat_vvel_sd              =   3.5157281179741E-02
(PID.TID 0000.0001) %MON dynstat_vvel_del2            =   1.1523714140662E-06
(PID.TID 0000.0001) %MON dynstat_wvel_max             =   1.1493148291484E-08
(PID.TID 0000.0001) %MON dynstat_wvel_min             =  -1.7575857166667E-08
(PID.TID 0000.0001) %MON dynstat_wvel_mean            =   2.2265260501122E-21
(PID.TID 0000.0001) %MON dynstat_wvel_sd              =   6.0624683016311E-09
(PID.TID 0000.0001) %MON dynstat_wvel_del2            =   5.0741607884348E-14
(PID.TID 0000.0001) %MON dynstat_theta_max            =   2.0000000000000E+01
(PID.TID 0000.0001) %MON dynstat_theta_min            =   2.0000000000000E+01
(PID.TID 0000.0001) %MON dynstat_theta_mean           =   1.9999999999999E+01
(PID.TID 0000.0001) %MON dynstat_theta_sd             =   1.1972645097557E-12
(PID.TID 0000.0001) %MON dynstat_theta_del2           =   0.0000000000000E+00
(PID.TID 0000.0001) %MON dynstat_salt_max             =   3.0000000000000E+01
(PID.TID 0000.0001) %MON dynstat_salt_min             =   3.0000000000000E+01
(PID.TID 0000.0001) %MON dynstat_salt_mean            =   2.9999999999998E+01
(PID.TID 0000.0001) %MON dynstat_salt_sd              =   2.1529444893531E-12
(PID.TID 0000.0001) %MON dynstat_salt_del2            =   0.0000000000000E+00
(PID.TID 0000.0001) %MON trAdv_CFL_u_max              =   2.4789612293643E-02
(PID.TID 0000.0001) %MON trAdv_CFL_v_max              =   2.4529318701484E-02
(PID.TID 0000.0001) %MON trAdv_CFL_w_max              =   2.8964462828576E-09
(PID.TID 0000.0001) %MON advcfl_uvel_max              =   2.4790738028730E-02
(PID.TID 0000.0001) %MON advcfl_vvel_max              =   2.4531794718752E-02
(PID.TID 0000.0001) %MON advcfl_wvel_max              =   8.4364114399999E-09
(PID.TID 0000.0001) %MON advcfl_W_hf_max              =   0.0000000000000E+00
(PID.TID 0000.0001) %MON pe_b_mean                    =   8.8630457561045E-06
(PID.TID 0000.0001) %MON ke_max                       =   5.3352919251794E-03
(PID.TID 0000.0001) %MON ke_mean                      =   1.3328099319078E-03
(PID.TID 0000.0001) %MON ke_vol                       =   7.2529629296391E+15
(PID.TID 0000.0001) %MON vort_r_min                   =  -3.7324854699440E-06
(PID.TID 0000.0001) %MON vort_r_max                   =   2.9437381092981E-06
(PID.TID 0000.0001) %MON vort_a_mean                  =   1.0615000000000E-04
(PID.TID 0000.0001) %MON vort_a_sd                    =   3.6088564573896E-06
(PID.TID 0000.0001) %MON vort_p_mean                  =   1.1210870169429E-04
(PID.TID 0000.0001) %MON vort_p_sd                    =   2.1062211055154E-05
(PID.TID 0000.0001) %MON surfExpan_theta_mean         =   4.4487301893970E-20
(PID.TID 0000.0001) %MON surfExpan_salt_mean          =   6.6723072011352E-20
(PID.TID 0000.0001) // =======================================================
(PID.TID 0000.0001) // End MONITOR dynamic field statistics
(PID.TID 0000.0001) // =======================================================
 cg2d: Sum(rhs),rhsMax =   4.36609646743601E-04  1.17505986441593E-02
 cg2d: Sum(rhs),rhsMax =   4.36668579007315E-04  1.17511479435754E-02
 cg2d: Sum(rhs),rhsMax =   4.36727375996038E-04  1.17516973250154E-02
 cg2d: Sum(rhs),rhsMax =   4.36785984916461E-04  1.17522468060885E-02
 cg2d: Sum(rhs),rhsMax =   4.36844428362079E-04  1.17527963973287E-02
 cg2d: Sum(rhs),rhsMax =   4.36902634018960E-04  1.17533460889097E-02
 cg2d: Sum(rhs),rhsMax =   4.36960657536839E-04  1.17538958880531E-02
 cg2d: Sum(rhs),rhsMax =   4.37018406551016E-04  1.17544457887087E-02
 cg2d: Sum(rhs),rhsMax =   4.37075913352659E-04  1.17549958016008E-02
 cg2d: Sum(rhs),rhsMax =   4.37133157060014E-04  1.17555459170301E-02
 cg2d: Sum(rhs),rhsMax =   4.37190087238961E-04  1.17560961461236E-02
 cg2d: Sum(rhs),rhsMax =   4.37246676117343E-04  1.17566464780497E-02
 cg2d: Sum(rhs),rhsMax =   4.37302963354029E-04  1.17571969256945E-02
 cg2d: Sum(rhs),rhsMax =   4.37358793207525E-04  1.17577474811624E-02
 cg2d: Sum(rhs),rhsMax =   4.37414279689958E-04  1.17582981433040E-02
 cg2d: Sum(rhs),rhsMax =   4.37469320070940E-04  1.17588489139369E-02
 cg2d: Sum(rhs),rhsMax =   4.37553792798140E-04  1.17593997719864E-02
 cg2d: Sum(rhs),rhsMax =   4.37637335506893E-04  1.17599507704880E-02
 cg2d: Sum(rhs),rhsMax =   4.37856019592335E-04  1.17605019071068E-02
 cg2d: Sum(rhs),rhsMax =   4.38070430982235E-04  1.17610531284716E-02
 cg2d: Sum(rhs),rhsMax =   4.38280358091037E-04  1.17616044698897E-02
 cg2d: Sum(rhs),rhsMax =   4.38485652883541E-04  1.17621559169083E-02
 cg2d: Sum(rhs),rhsMax =   4.38686113992906E-04  1.17627074861712E-02
 cg2d: Sum(rhs),rhsMax =   4.38881629100978E-04  1.17632591657445E-02
 cg2d: Sum(rhs),rhsMax =   4.39078985186679E-04  1.17638109592946E-02
 cg2d: Sum(rhs),rhsMax =   4.39270900915608E-04  1.17643628758121E-02
 cg2d: Sum(rhs),rhsMax =   4.39457206706595E-04  1.17649149109968E-02
 cg2d: Sum(rhs),rhsMax =   4.39637748459960E-04  1.17654670616139E-02
 cg2d: Sum(rhs),rhsMax =   4.39812429975870E-04  1.17660193332133E-02
 cg2d: Sum(rhs),rhsMax =   4.39981121502533E-04  1.17665717214868E-02
 cg2d: Sum(rhs),rhsMax =   4.40189686091280E-04  1.17671242259399E-02
 cg2d: Sum(rhs),rhsMax =   4.40396346465706E-04  1.17676768592859E-02
 cg2d: Sum(rhs),rhsMax =   4.40594262525093E-04  1.17682296132381E-02
 cg2d: Sum(rhs),rhsMax =   4.40789548986555E-04  1.17687824828847E-02
 cg2d: Sum(rhs),rhsMax =   4.40975765784319E-04  1.17693354737974E-02
 cg2d: Sum(rhs),rhsMax =   4.41158857318607E-04  1.17698885922941E-02
 cg2d: Sum(rhs),rhsMax =   4.41332737181997E-04  1.17704418313838E-02
 cg2d: Sum(rhs),rhsMax =   4.41497495738375E-04  1.17709951930295E-02
 cg2d: Sum(rhs),rhsMax =   4.41658729274463E-04  1.17715486781520E-02
 cg2d: Sum(rhs),rhsMax =   4.41810793964987E-04  1.17721022878630E-02
 cg2d: Sum(rhs),rhsMax =   4.41953877868903E-04  1.17726560255519E-02
 cg2d: Sum(rhs),rhsMax =   4.42088112838702E-04  1.17732098838249E-02
 cg2d: Sum(rhs),rhsMax =   4.42218785862621E-04  1.17737638809058E-02
 cg2d: Sum(rhs),rhsMax =   4.42340810413794E-04  1.17743179930567E-02
 cg2d: Sum(rhs),rhsMax =   4.42454425193689E-04  1.17748722393996E-02
 cg2d: Sum(rhs),rhsMax =   4.42559883737117E-04  1.17754266085453E-02
 cg2d: Sum(rhs),rhsMax =   4.42662269071643E-04  1.17759811051030E-02
 cg2d: Sum(rhs),rhsMax =   4.42756872211901E-04  1.17765357344648E-02
 cg2d: Sum(rhs),rhsMax =   4.42844027137788E-04  1.17770904931378E-02
 cg2d: Sum(rhs),rhsMax =   4.42924023350675E-04  1.17776453820477E-02
 cg2d: Sum(rhs),rhsMax =   4.42997244501062E-04  1.17782004012942E-02
 cg2d: Sum(rhs),rhsMax =   4.43064016699017E-04  1.17787555550905E-02
 cg2d: Sum(rhs),rhsMax =   4.43124727925260E-04  1.17793108366412E-02
 cg2d: Sum(rhs),rhsMax =   4.43184158807064E-04  1.17798662495983E-02
 cg2d: Sum(rhs),rhsMax =   4.43238166116695E-04  1.17804218029044E-02
 cg2d: Sum(rhs),rhsMax =   4.43287214242249E-04  1.17809774798234E-02
 cg2d: Sum(rhs),rhsMax =   4.43331659830343E-04  1.17815332981335E-02
 cg2d: Sum(rhs),rhsMax =   4.43371979370130E-04  1.17820892430232E-02
 cg2d: Sum(rhs),rhsMax =   4.43408588321941E-04  1.17826453296087E-02
 cg2d: Sum(rhs),rhsMax =   4.43441941908283E-04  1.17832015470058E-02
 cg2d: Sum(rhs),rhsMax =   4.43472452133425E-04  1.17837579031002E-02
 cg2d: Sum(rhs),rhsMax =   4.43500616474895E-04  1.17843143896845E-02
 cg2d: Sum(rhs),rhsMax =   4.43526894180061E-04  1.17848710195883E-02
 cg2d: Sum(rhs),rhsMax =   4.43551721078983E-04  1.17854277810952E-02
 cg2d: Sum(rhs),rhsMax =   4.43575546778919E-04  1.17859846871665E-02
 cg2d: Sum(rhs),rhsMax =   4.43598847882797E-04  1.17865417270192E-02
 cg2d: Sum(rhs),rhsMax =   4.43622095213059E-04  1.17870989085991E-02
 cg2d: Sum(rhs),rhsMax =   4.43645718799804E-04  1.17876562235648E-02
 cg2d: Sum(rhs),rhsMax =   4.43670212521790E-04  1.17882136852807E-02
 cg2d: Sum(rhs),rhsMax =   4.43696026640709E-04  1.17887712809051E-02
 cg2d: Sum(rhs),rhsMax =   4.43723591736209E-04  1.17893290235737E-02
 cg2d: Sum(rhs),rhsMax =   4.43753374486672E-04  1.17898869031031E-02
(PID.TID 0000.0001)      cg2d_init_res =   3.71274615137896E-03
(PID.TID 0000.0001)      cg2d_iters(min,last) =      -1     340
(PID.TID 0000.0001)      cg2d_last_res =   9.44448986229986E-08
(PID.TID 0000.0001) // =======================================================
(PID.TID 0000.0001) // Begin MONITOR dynamic field statistics
(PID.TID 0000.0001) // =======================================================
(PID.TID 0000.0001) %MON time_tsnumber                =                  9504
(PID.TID 0000.0001) %MON time_secondsf                =   1.1404800000000E+07
(PID.TID 0000.0001) %MON dynstat_eta_max              =   1.0656701661618E-01
(PID.TID 0000.0001) %MON dynstat_eta_min              =  -2.5000224504230E-01
(PID.TID 0000.0001) %MON dynstat_eta_mean             =  -2.4900025329428E-08
(PID.TID 0000.0001) %MON dynstat_eta_sd               =   9.3406242002747E-02
(PID.TID 0000.0001) %MON dynstat_eta_del2             =   5.4833502303303E-07
(PID.TID 0000.0001) %MON dynstat_uvel_max             =   9.1924093796973E-02
(PID.TID 0000.0001) %MON dynstat_uvel_min             =  -1.0363984601468E-01
(PID.TID 0000.0001) %MON dynstat_uvel_mean            =   1.2224459647678E-07
(PID.TID 0000.0001) %MON dynstat_uvel_sd              =   3.8077987705067E-02
(PID.TID 0000.0001) %MON dynstat_uvel_del2            =   8.5000899142184E-07
(PID.TID 0000.0001) %MON dynstat_vvel_max             =   1.0294649113015E-01
(PID.TID 0000.0001) %MON dynstat_vvel_min             =  -8.3790859094077E-02
(PID.TID 0000.0001) %MON dynstat_vvel_mean            =   2.5049056371986E-08
(PID.TID 0000.0001) %MON dynstat_vvel_sd              =   3.5366588755858E-02
(PID.TID 0000.0001) %MON dynstat_vvel_del2            =   1.1534331103772E-06
(PID.TID 0000.0001) %MON dynstat_wvel_max             =   1.2053906079382E-08
(PID.TID 0000.0001) %MON dynstat_wvel_min             =  -1.7051728796214E-08
(PID.TID 0000.0001) %MON dynstat_wvel_mean            =   1.0666615511333E-22
(PID.TID 0000.0001) %MON dynstat_wvel_sd              =   6.0271323971632E-09
(PID.TID 0000.0001) %MON dynstat_wvel_del2            =   5.0223558960603E-14
(PID.TID 0000.0001) %MON dynstat_theta_max            =   2.0000000000000E+01
(PID.TID 0000.0001) %MON dynstat_theta_min            =   2.0000000000000E+01
(PID.TID 0000.0001) %MON dynstat_theta_mean           =   1.9999999999999E+01
(PID.TID 0000.0001) %MON dynstat_theta_sd             =   1.1972645097557E-12
(PID.TID 0000.0001) %MON dynstat_theta_del2           =   0.0000000000000E+00
(PID.TID 0000.0001) %MON dynstat_salt_max             =   3.0000000000000E+01
(PID.TID 0000.0001) %MON dynstat_salt_min             =   3.0000000000000E+01
(PID.TID 0000.0001) %MON dynstat_salt_mean            =   2.9999999999998E+01
(PID.TID 0000.0001) %MON dynstat_salt_sd              =   2.1529444893531E-12
(PID.TID 0000.0001) %MON dynstat_salt_del2            =   0.0000000000000E+00
(PID.TID 0000.0001) %MON trAdv_CFL_u_max              =   2.4872401908535E-02
(PID.TID 0000.0001) %MON trAdv_CFL_v_max              =   2.4704763554040E-02
(PID.TID 0000.0001) %MON trAdv_CFL_w_max              =   3.0456760061378E-09
(PID.TID 0000.0001) %MON advcfl_uvel_max              =   2.4873563043523E-02
(PID.TID 0000.0001) %MON advcfl_vvel_max              =   2.4707157871235E-02
(PID.TID 0000.0001) %MON advcfl_wvel_max              =   8.1848298221827E-09
(PID.TID 0000.0001) %MON advcfl_W_hf_max              =   0.0000000000000E+00
(PID.TID 0000.0001) %MON pe_b_mean                    =   8.9265897513707E-06
(PID.TID 0000.0001) %MON ke_max                       =   5.3708622140193E-03
(PID.TID 0000.0001) %MON ke_mean                      =   1.3442858699982E-03
(PID.TID 0000.0001) %MON ke_vol                       =   7.2529629296391E+15
(PID.TID 0000.0001) %MON vort_r_min                   =  -3.7451241268398E-06
(PID.TID 0000.0001) %MON vort_r_max                   =   2.9432871004543E-06
(PID.TID 0000.0001) %MON vort_a_mean                  =   1.0615000000000E-04
(PID.TID 0000.0001) %MON vort_a_sd                    =   3.6092000776860E-06
(PID.TID 0000.0001) %MON vort_p_mean                  =   1.1210870169429E-04
(PID.TID 0000.0001) %MON vort_p_sd                    =   2.1062344564818E-05
(PID.TID 0000.0001) %MON surfExpan_theta_mean         =   2.1299987940978E-21
(PID.TID 0000.0001) %MON surfExpan_salt_mean          =   3.1916071272318E-21
(PID.TID 0000.0001) // =======================================================
(PID.TID 0000.0001) // End MONITOR dynamic field statistics
(PID.TID 0000.0001) // =======================================================
 cg2d: Sum(rhs),rhsMax =   4.43785837649556E-04  1.17904449280439E-02
 cg2d: Sum(rhs),rhsMax =   4.43821395370261E-04  1.17910030891806E-02
 cg2d: Sum(rhs),rhsMax =   4.43860487941388E-04  1.17915614002277E-02
 cg2d: Sum(rhs),rhsMax =   4.43903572895308E-04  1.17921198484631E-02
 cg2d: Sum(rhs),rhsMax =   4.43951038868528E-04  1.17926784450303E-02
 cg2d: Sum(rhs),rhsMax =   4.44003307746278E-04  1.17932371795223E-02
 cg2d: Sum(rhs),rhsMax =   4.44060806900142E-04  1.17937960660170E-02
 cg2d: Sum(rhs),rhsMax =   4.44123959803306E-04  1.17943550896693E-02
 cg2d: Sum(rhs),rhsMax =   4.44193129552942E-04  1.17949142658762E-02
 cg2d: Sum(rhs),rhsMax =   4.44264039250955E-04  1.17954735806258E-02
 cg2d: Sum(rhs),rhsMax =   4.44341608302101E-04  1.17960330449350E-02
 cg2d: Sum(rhs),rhsMax =   4.44426176136350E-04  1.17965926562698E-02
 cg2d: Sum(rhs),rhsMax =   4.44518137664473E-04  1.17971524157432E-02
 cg2d: Sum(rhs),rhsMax =   4.44617790760002E-04  1.17977123210189E-02
 cg2d: Sum(rhs),rhsMax =   4.44725498388253E-04  1.17982723767410E-02
 cg2d: Sum(rhs),rhsMax =   4.44841580276703E-04  1.17988325787089E-02
 cg2d: Sum(rhs),rhsMax =   4.44961285284580E-04  1.17993929323304E-02
 cg2d: Sum(rhs),rhsMax =   4.45089782916455E-04  1.17999534345986E-02
 cg2d: Sum(rhs),rhsMax =   4.45227397069807E-04  1.18005140867884E-02
 cg2d: Sum(rhs),rhsMax =   4.45374390902248E-04  1.18010748885646E-02
 cg2d: Sum(rhs),rhsMax =   4.45531025549346E-04  1.18016358418448E-02
 cg2d: Sum(rhs),rhsMax =   4.45692121698534E-04  1.18021969427349E-02
 cg2d: Sum(rhs),rhsMax =   4.45863152777767E-04  1.18027581985451E-02
 cg2d: Sum(rhs),rhsMax =   4.46044378647812E-04  1.18033196051166E-02
 cg2d: Sum(rhs),rhsMax =   4.46235958206188E-04  1.18038811628041E-02
 cg2d: Sum(rhs),rhsMax =   4.46432326465082E-04  1.18044428819534E-02
 cg2d: Sum(rhs),rhsMax =   4.46639260770531E-04  1.18050047457880E-02
 cg2d: Sum(rhs),rhsMax =   4.46856946068420E-04  1.18055667680567E-02
 cg2d: Sum(rhs),rhsMax =   4.47085583064053E-04  1.18061289388235E-02
 cg2d: Sum(rhs),rhsMax =   4.47318822831909E-04  1.18066912637634E-02
 cg2d: Sum(rhs),rhsMax =   4.47563054133075E-04  1.18072537466663E-02
 cg2d: Sum(rhs),rhsMax =   4.47811590900044E-04  1.18078163848467E-02
 cg2d: Sum(rhs),rhsMax =   4.48071083575145E-04  1.18083791789666E-02
 cg2d: Sum(rhs),rhsMax =   4.48280071002609E-04  1.18089421296655E-02
 cg2d: Sum(rhs),rhsMax =   4.48497168803049E-04  1.18095052348342E-02
 cg2d: Sum(rhs),rhsMax =   4.48722374163628E-04  1.18100684972086E-02
 cg2d: Sum(rhs),rhsMax =   4.48955718632087E-04  1.18106319174466E-02
 cg2d: Sum(rhs),rhsMax =   4.49188933607637E-04  1.18111955044194E-02
 cg2d: Sum(rhs),rhsMax =   4.49429865024999E-04  1.18117592381418E-02
 cg2d: Sum(rhs),rhsMax =   4.49489251105115E-04  1.18123231380299E-02
 cg2d: Sum(rhs),rhsMax =   4.49549510149368E-04  1.18128871938689E-02
 cg2d: Sum(rhs),rhsMax =   4.49610772330919E-04  1.18134514065070E-02
 cg2d: Sum(rhs),rhsMax =   4.49672847587042E-04  1.18140157789755E-02
 cg2d: Sum(rhs),rhsMax =   4.49735876733312E-04  1.18145803109440E-02
 cg2d: Sum(rhs),rhsMax =   4.49799737188169E-04  1.18151450028302E-02
 cg2d: Sum(rhs),rhsMax =   4.49864450788937E-04  1.18157098538704E-02
 cg2d: Sum(rhs),rhsMax =   4.49908800666837E-04  1.18162748417378E-02
 cg2d: Sum(rhs),rhsMax =   4.49953648229081E-04  1.18168400195865E-02
 cg2d: Sum(rhs),rhsMax =   4.49998950223570E-04  1.18174053571222E-02
 cg2d: Sum(rhs),rhsMax =   4.50044721067839E-04  1.18179708550211E-02
 cg2d: Sum(rhs),rhsMax =   4.50090953281594E-04  1.18185365147114E-02
 cg2d: Sum(rhs),rhsMax =   4.50137618417900E-04  1.18191023405625E-02
 cg2d: Sum(rhs),rhsMax =   4.50184692454805E-04  1.18196683275578E-02
 cg2d: Sum(rhs),rhsMax =   4.50232183118029E-04  1.18202344789808E-02
 cg2d: Sum(rhs),rhsMax =   4.50280073164782E-04  1.18208007926496E-02
 cg2d: Sum(rhs),rhsMax =   4.50328363836834E-04  1.18213672743723E-02
 cg2d: Sum(rhs),rhsMax =   4.50377015880096E-04  1.18219339189563E-02
 cg2d: Sum(rhs),rhsMax =   4.50426041008280E-04  1.18225007272336E-02
 cg2d: Sum(rhs),rhsMax =   4.50475405268574E-04  1.18230677001542E-02
 cg2d: Sum(rhs),rhsMax =   4.50525148696857E-04  1.18236348408897E-02
 cg2d: Sum(rhs),rhsMax =   4.50575224017815E-04  1.18242021460303E-02
 cg2d: Sum(rhs),rhsMax =   4.50625626141453E-04  1.18247696174037E-02
 cg2d: Sum(rhs),rhsMax =   4.50676344458001E-04  1.18253372536320E-02
 cg2d: Sum(rhs),rhsMax =   4.50727388174638E-04  1.18259050604511E-02
 cg2d: Sum(rhs),rhsMax =   4.50778747989067E-04  1.18264730323308E-02
 cg2d: Sum(rhs),rhsMax =   4.50830414798431E-04  1.18270411722642E-02
 cg2d: Sum(rhs),rhsMax =   4.50872875179168E-04  1.18276094846648E-02
 cg2d: Sum(rhs),rhsMax =   4.50915562169123E-04  1.18281779604220E-02
 cg2d: Sum(rhs),rhsMax =   4.50958539811728E-04  1.18287466032088E-02
 cg2d: Sum(rhs),rhsMax =   4.51001655429569E-04  1.18293154194144E-02
 cg2d: Sum(rhs),rhsMax =   4.51045059821705E-04  1.18298843967749E-02
 cg2d: Sum(rhs),rhsMax =   4.51088672250822E-04  1.18304535506886E-02
(PID.TID 0000.0001)      cg2d_init_res =   3.65982449665778E-03
(PID.TID 0000.0001)      cg2d_iters(min,last) =      -1     372
(PID.TID 0000.0001)      cg2d_last_res =   9.21467466176306E-08
(PID.TID 0000.0001) // =======================================================
(PID.TID 0000.0001) // Begin MONITOR dynamic field statistics
(PID.TID 0000.0001) // =======================================================
(PID.TID 0000.0001) %MON time_tsnumber                =                  9576
(PID.TID 0000.0001) %MON time_secondsf                =   1.1491200000000E+07
(PID.TID 0000.0001) %MON dynstat_eta_max              =   1.0687282560974E-01
(PID.TID 0000.0001) %MON dynstat_eta_min              =  -2.5101757713796E-01
(PID.TID 0000.0001) %MON dynstat_eta_mean             =  -2.5399348282778E-08
(PID.TID 0000.0001) %MON dynstat_eta_sd               =   9.3734265694505E-02
(PID.TID 0000.0001) %MON dynstat_eta_del2             =   5.5058488797548E-07
(PID.TID 0000.0001) %MON dynstat_uvel_max             =   9.2336346534539E-02
(PID.TID 0000.0001) %MON dynstat_uvel_min             =  -1.0399079754610E-01
(PID.TID 0000.0001) %MON dynstat_uvel_mean            =   1.4963958153256E-07
(PID.TID 0000.0001) %MON dynstat_uvel_sd              =   3.8191308423892E-02
(PID.TID 0000.0001) %MON dynstat_uvel_del2            =   8.5251081208816E-07
(PID.TID 0000.0001) %MON dynstat_vvel_max             =   1.0365097943524E-01
(PID.TID 0000.0001) %MON dynstat_vvel_min             =  -8.4449511862207E-02
(PID.TID 0000.0001) %MON dynstat_vvel_mean            =   4.1145675180742E-09
(PID.TID 0000.0001) %MON dynstat_vvel_sd              =   3.5565491845375E-02
(PID.TID 0000.0001) %MON dynstat_vvel_del2            =   1.1539058060393E-06
(PID.TID 0000.0001) %MON dynstat_wvel_max             =   1.2551752682775E-08
(PID.TID 0000.0001) %MON dynstat_wvel_min             =  -1.6584760672413E-08
(PID.TID 0000.0001) %MON dynstat_wvel_mean            =   2.9454779447887E-21
(PID.TID 0000.0001) %MON dynstat_wvel_sd              =   5.9969581574873E-09
(PID.TID 0000.0001) %MON dynstat_wvel_del2            =   4.9711757859707E-14
(PID.TID 0000.0001) %MON dynstat_theta_max            =   2.0000000000000E+01
(PID.TID 0000.0001) %MON dynstat_theta_min            =   2.0000000000000E+01
(PID.TID 0000.0001) %MON dynstat_theta_mean           =   1.9999999999999E+01
(PID.TID 0000.0001) %MON dynstat_theta_sd             =   1.1972645097557E-12
(PID.TID 0000.0001) %MON dynstat_theta_del2           =   0.0000000000000E+00
(PID.TID 0000.0001) %MON dynstat_salt_max             =   3.0000000000000E+01
(PID.TID 0000.0001) %MON dynstat_salt_min             =   3.0000000000000E+01
(PID.TID 0000.0001) %MON dynstat_salt_mean            =   2.9999999999998E+01
(PID.TID 0000.0001) %MON dynstat_salt_sd              =   2.1529444893531E-12
(PID.TID 0000.0001) %MON dynstat_salt_del2            =   0.0000000000000E+00
(PID.TID 0000.0001) %MON trAdv_CFL_u_max              =   2.4956612781808E-02
(PID.TID 0000.0001) %MON trAdv_CFL_v_max              =   2.4873933032005E-02
(PID.TID 0000.0001) %MON trAdv_CFL_w_max              =   3.1773026079508E-09
(PID.TID 0000.0001) %MON advcfl_uvel_max              =   2.4957791411064E-02
(PID.TID 0000.0001) %MON advcfl_vvel_max              =   2.4876235064458E-02
(PID.TID 0000.0001) %MON advcfl_wvel_max              =   7.9606851227582E-09
(PID.TID 0000.0001) %MON advcfl_W_hf_max              =   0.0000000000000E+00
(PID.TID 0000.0001) %MON pe_b_mean                    =   8.9893965695298E-06
(PID.TID 0000.0001) %MON ke_max                       =   5.4071119718062E-03
(PID.TID 0000.0001) %MON ke_mean                      =   1.3556104141379E-03
(PID.TID 0000.0001) %MON ke_vol                       =   7.2529629296391E+15
(PID.TID 0000.0001) %MON vort_r_min                   =  -3.7579906771019E-06
(PID.TID 0000.0001) %MON vort_r_max                   =   2.9403133509349E-06
(PID.TID 0000.0001) %MON vort_a_mean                  =   1.0615000000000E-04
(PID.TID 0000.0001) %MON vort_a_sd                    =   3.6095396784545E-06
(PID.TID 0000.0001) %MON vort_p_mean                  =   1.1210870169429E-04
(PID.TID 0000.0001) %MON vort_p_sd                    =   2.1062462175729E-05
(PID.TID 0000.0001) %MON surfExpan_theta_mean         =   5.8831585764559E-20
(PID.TID 0000.0001) %MON surfExpan_salt_mean          =   8.8241949348770E-20
(PID.TID 0000.0001) // =======================================================
(PID.TID 0000.0001) // End MONITOR dynamic field statistics
(PID.TID 0000.0001) // =======================================================
 cg2d: Sum(rhs),rhsMax =   4.51132505850925E-04  1.18310228684440E-02
 cg2d: Sum(rhs),rhsMax =   4.51176585230056E-04  1.18315923621645E-02
 cg2d: Sum(rhs),rhsMax =   4.51220808520806E-04  1.18321620226648E-02
 cg2d: Sum(rhs),rhsMax =   4.51265275761198E-04  1.18327318550171E-02
 cg2d: Sum(rhs),rhsMax =   4.51309948535353E-04  1.18333018598103E-02
 cg2d: Sum(rhs),rhsMax =   4.51354831309782E-04  1.18338720322428E-02
 cg2d: Sum(rhs),rhsMax =   4.51399919811682E-04  1.18344423773006E-02
 cg2d: Sum(rhs),rhsMax =   4.51445200379996E-04  1.18350128946993E-02
 cg2d: Sum(rhs),rhsMax =   4.51490673136691E-04  1.18355835842083E-02
 cg2d: Sum(rhs),rhsMax =   4.51536356223711E-04  1.18361544451391E-02
 cg2d: Sum(rhs),rhsMax =   4.51582188464483E-04  1.18367254790637E-02
 cg2d: Sum(rhs),rhsMax =   4.51628232700722E-04  1.18372966862223E-02
 cg2d: Sum(rhs),rhsMax =   4.51674443885060E-04  1.18378680649634E-02
 cg2d: Sum(rhs),rhsMax =   4.51720840119985E-04  1.18384396189508E-02
 cg2d: Sum(rhs),rhsMax =   4.51767417347763E-04  1.18390113449494E-02
 cg2d: Sum(rhs),rhsMax =   4.51814158158951E-04  1.18395832479075E-02
 cg2d: Sum(rhs),rhsMax =   4.51861097207054E-04  1.18401553214431E-02
 cg2d: Sum(rhs),rhsMax =   4.51908192507278E-04  1.18407275711541E-02
 cg2d: Sum(rhs),rhsMax =   4.51955488642394E-04  1.18412999934852E-02
 cg2d: Sum(rhs),rhsMax =   4.52002915204038E-04  1.18418725935340E-02
 cg2d: Sum(rhs),rhsMax =   4.52050553271889E-04  1.18424453666046E-02
 cg2d: Sum(rhs),rhsMax =   4.52098276051164E-04  1.18430183208356E-02
 cg2d: Sum(rhs),rhsMax =   4.52146243405996E-04  1.18435914417899E-02
 cg2d: Sum(rhs),rhsMax =   4.52194343252780E-04  1.18441647439543E-02
 cg2d: Sum(rhs),rhsMax =   4.52242618133408E-04  1.18447382191280E-02
 cg2d: Sum(rhs),rhsMax =   4.52291072997716E-04  1.18453118745073E-02
 cg2d: Sum(rhs),rhsMax =   4.52339670176898E-04  1.18458857047076E-02
 cg2d: Sum(rhs),rhsMax =   4.52388446639475E-04  1.18464597122686E-02
 cg2d: Sum(rhs),rhsMax =   4.52437365060180E-04  1.18470338952464E-02
 cg2d: Sum(rhs),rhsMax =   4.52486448658296E-04  1.18476082574405E-02
 cg2d: Sum(rhs),rhsMax =   4.52535677504994E-04  1.18481827960019E-02
 cg2d: Sum(rhs),rhsMax =   4.52585092220853E-04  1.18487575133692E-02
 cg2d: Sum(rhs),rhsMax =   4.52634617413801E-04  1.18493324074418E-02
 cg2d: Sum(rhs),rhsMax =   4.52684277851003E-04  1.18499074818594E-02
 cg2d: Sum(rhs),rhsMax =   4.52734126456278E-04  1.18504827309322E-02
 cg2d: Sum(rhs),rhsMax =   4.52784138237001E-04  1.18510581595699E-02
 cg2d: Sum(rhs),rhsMax =   4.52834288696243E-04  1.18516337685413E-02
 cg2d: Sum(rhs),rhsMax =   4.52884597304122E-04  1.18522095570653E-02
 cg2d: Sum(rhs),rhsMax =   4.52935073134582E-04  1.18527855230849E-02
 cg2d: Sum(rhs),rhsMax =   4.52985691860280E-04  1.18533616706010E-02
 cg2d: Sum(rhs),rhsMax =   4.53036452002252E-04  1.18539379955790E-02
 cg2d: Sum(rhs),rhsMax =   4.53087337511848E-04  1.18545145028864E-02
 cg2d: Sum(rhs),rhsMax =   4.53138361368189E-04  1.18550911853707E-02
 cg2d: Sum(rhs),rhsMax =   4.53189584851622E-04  1.18556680537619E-02
 cg2d: Sum(rhs),rhsMax =   4.53240944133987E-04  1.18562450981040E-02
 cg2d: Sum(rhs),rhsMax =   4.53292437338009E-04  1.18568223273062E-02
 cg2d: Sum(rhs),rhsMax =   4.53344084094377E-04  1.18573997322773E-02
 cg2d: Sum(rhs),rhsMax =   4.53395876917248E-04  1.18579773204035E-02
 cg2d: Sum(rhs),rhsMax =   4.53447782622109E-04  1.18585550908762E-02
 cg2d: Sum(rhs),rhsMax =   4.53499877976410E-04  1.18591330430173E-02
 cg2d: Sum(rhs),rhsMax =   4.53552090170639E-04  1.18597111718251E-02
 cg2d: Sum(rhs),rhsMax =   4.53604476987786E-04  1.18602894879135E-02
 cg2d: Sum(rhs),rhsMax =   4.53656981313326E-04  1.18608679822131E-02
 cg2d: Sum(rhs),rhsMax =   4.53709654036743E-04  1.18614466615237E-02
 cg2d: Sum(rhs),rhsMax =   4.53762462436917E-04  1.18620255190687E-02
 cg2d: Sum(rhs),rhsMax =   4.53815380363744E-04  1.18626045621023E-02
 cg2d: Sum(rhs),rhsMax =   4.53868456147241E-04  1.18631837860603E-02
 cg2d: Sum(rhs),rhsMax =   4.53921692278952E-04  1.18637631941168E-02
 cg2d: Sum(rhs),rhsMax =   4.53975065929512E-04  1.18643427821111E-02
 cg2d: Sum(rhs),rhsMax =   4.54028566402895E-04  1.18649225551601E-02
 cg2d: Sum(rhs),rhsMax =   4.54082220981115E-04  1.18655025101089E-02
 cg2d: Sum(rhs),rhsMax =   4.54136030940492E-04  1.18660826504967E-02
 cg2d: Sum(rhs),rhsMax =   4.54189976922528E-04  1.18666629701773E-02
 cg2d: Sum(rhs),rhsMax =   4.54244036486888E-04  1.18672434761686E-02
 cg2d: Sum(rhs),rhsMax =   4.54298270285213E-04  1.18678241654419E-02
 cg2d: Sum(rhs),rhsMax =   4.54352640328649E-04  1.18684050381021E-02
 cg2d: Sum(rhs),rhsMax =   4.54407151115249E-04  1.18689860932075E-02
 cg2d: Sum(rhs),rhsMax =   4.54461808231789E-04  1.18695673324916E-02
 cg2d: Sum(rhs),rhsMax =   4.54516612527678E-04  1.18701487582246E-02
 cg2d: Sum(rhs),rhsMax =   4.54571522418193E-04  1.18707303694181E-02
 cg2d: Sum(rhs),rhsMax =   4.54626591718375E-04  1.18713121596718E-02
 cg2d: Sum(rhs),rhsMax =   4.54681808498980E-04  1.18718941364018E-02
(PID.TID 0000.0001)      cg2d_init_res =   3.60829149230169E-03
(PID.TID 0000.0001)      cg2d_iters(min,last) =      -1     372
(PID.TID 0000.0001)      cg2d_last_res =   9.59546337629547E-08
(PID.TID 0000.0001) // =======================================================
(PID.TID 0000.0001) // Begin MONITOR dynamic field statistics
(PID.TID 0000.0001) // =======================================================
(PID.TID 0000.0001) %MON time_tsnumber                =                  9648
(PID.TID 0000.0001) %MON time_secondsf                =   1.1577600000000E+07
(PID.TID 0000.0001) %MON dynstat_eta_max              =   1.0710086799313E-01
(PID.TID 0000.0001) %MON dynstat_eta_min              =  -2.5201395604005E-01
(PID.TID 0000.0001) %MON dynstat_eta_mean             =  -2.5691998754523E-08
(PID.TID 0000.0001) %MON dynstat_eta_sd               =   9.4058726474170E-02
(PID.TID 0000.0001) %MON dynstat_eta_del2             =   5.5280409758250E-07
(PID.TID 0000.0001) %MON dynstat_uvel_max             =   9.2749427627389E-02
(PID.TID 0000.0001) %MON dynstat_uvel_min             =  -1.0434910648597E-01
(PID.TID 0000.0001) %MON dynstat_uvel_mean            =   1.7116756999958E-07
(PID.TID 0000.0001) %MON dynstat_uvel_sd              =   3.8310769013853E-02
(PID.TID 0000.0001) %MON dynstat_uvel_del2            =   8.5536404396189E-07
(PID.TID 0000.0001) %MON dynstat_vvel_max             =   1.0432655355926E-01
(PID.TID 0000.0001) %MON dynstat_vvel_min             =  -8.5110287024135E-02
(PID.TID 0000.0001) %MON dynstat_vvel_mean            =  -2.0990605111955E-08
(PID.TID 0000.0001) %MON dynstat_vvel_sd              =   3.5752647562956E-02
(PID.TID 0000.0001) %MON dynstat_vvel_del2            =   1.1539216729544E-06
(PID.TID 0000.0001) %MON dynstat_wvel_max             =   1.2987624946982E-08
(PID.TID 0000.0001) %MON dynstat_wvel_min             =  -1.6261023264378E-08
(PID.TID 0000.0001) %MON dynstat_wvel_mean            =  -6.5645965571238E-21
(PID.TID 0000.0001) %MON dynstat_wvel_sd              =   5.9700590141691E-09
(PID.TID 0000.0001) %MON dynstat_wvel_del2            =   4.9329842666075E-14
(PID.TID 0000.0001) %MON dynstat_theta_max            =   2.0000000000000E+01
(PID.TID 0000.0001) %MON dynstat_theta_min            =   2.0000000000000E+01
(PID.TID 0000.0001) %MON dynstat_theta_mean           =   1.9999999999999E+01
(PID.TID 0000.0001) %MON dynstat_theta_sd             =   1.1972645097557E-12
(PID.TID 0000.0001) %MON dynstat_theta_del2           =   0.0000000000000E+00
(PID.TID 0000.0001) %MON dynstat_salt_max             =   3.0000000000000E+01
(PID.TID 0000.0001) %MON dynstat_salt_min             =   3.0000000000000E+01
(PID.TID 0000.0001) %MON dynstat_salt_mean            =   2.9999999999998E+01
(PID.TID 0000.0001) %MON dynstat_salt_sd              =   2.1529444893531E-12
(PID.TID 0000.0001) %MON dynstat_salt_del2            =   0.0000000000000E+00
(PID.TID 0000.0001) %MON trAdv_CFL_u_max              =   2.5042567180526E-02
(PID.TID 0000.0001) %MON trAdv_CFL_v_max              =   2.5036170666041E-02
(PID.TID 0000.0001) %MON trAdv_CFL_w_max              =   3.2950719638754E-09
(PID.TID 0000.0001) %MON advcfl_uvel_max              =   2.5043785556633E-02
(PID.TID 0000.0001) %MON advcfl_vvel_max              =   2.5038372854222E-02
(PID.TID 0000.0001) %MON advcfl_wvel_max              =   7.8052911669016E-09
(PID.TID 0000.0001) %MON advcfl_W_hf_max              =   0.0000000000000E+00
(PID.TID 0000.0001) %MON pe_b_mean                    =   9.0517377994326E-06
(PID.TID 0000.0001) %MON ke_max                       =   5.4658605078179E-03
(PID.TID 0000.0001) %MON ke_mean                      =   1.3668030942431E-03
(PID.TID 0000.0001) %MON ke_vol                       =   7.2529629296391E+15
(PID.TID 0000.0001) %MON vort_r_min                   =  -3.7711499695427E-06
(PID.TID 0000.0001) %MON vort_r_max                   =   2.9353684149498E-06
(PID.TID 0000.0001) %MON vort_a_mean                  =   1.0615000000000E-04
(PID.TID 0000.0001) %MON vort_a_sd                    =   3.6098773299664E-06
(PID.TID 0000.0001) %MON vort_p_mean                  =   1.1210870169429E-04
(PID.TID 0000.0001) %MON vort_p_sd                    =   2.1062562868387E-05
(PID.TID 0000.0001) %MON surfExpan_theta_mean         =  -1.3133881582279E-19
(PID.TID 0000.0001) %MON surfExpan_salt_mean          =  -1.9700224970841E-19
(PID.TID 0000.0001) // =======================================================
(PID.TID 0000.0001) // End MONITOR dynamic field statistics
(PID.TID 0000.0001) // =======================================================
 cg2d: Sum(rhs),rhsMax =   4.54737161809023E-04  1.18724762979080E-02
 cg2d: Sum(rhs),rhsMax =   4.54792682604600E-04  1.18730586448646E-02
 cg2d: Sum(rhs),rhsMax =   4.54848282737404E-04  1.18736411764138E-02
 cg2d: Sum(rhs),rhsMax =   4.54904045542742E-04  1.18742238919917E-02
 cg2d: Sum(rhs),rhsMax =   4.54959978146017E-04  1.18748067920016E-02
 cg2d: Sum(rhs),rhsMax =   4.55016039873335E-04  1.18753898804744E-02
 cg2d: Sum(rhs),rhsMax =   4.55072250141863E-04  1.18759731491713E-02
 cg2d: Sum(rhs),rhsMax =   4.55128577138902E-04  1.18765566058788E-02
 cg2d: Sum(rhs),rhsMax =   4.55185081396020E-04  1.18771402486158E-02
 cg2d: Sum(rhs),rhsMax =   4.55241717821362E-04  1.18777240769019E-02
 cg2d: Sum(rhs),rhsMax =   4.55298524698390E-04  1.18783080878717E-02
 cg2d: Sum(rhs),rhsMax =   4.55355445811609E-04  1.18788922855634E-02
 cg2d: Sum(rhs),rhsMax =   4.55412515432421E-04  1.18794766693945E-02
 cg2d: Sum(rhs),rhsMax =   4.55469721759017E-04  1.18800612396501E-02
 cg2d: Sum(rhs),rhsMax =   4.55527075504544E-04  1.18806459944811E-02
 cg2d: Sum(rhs),rhsMax =   4.55584574453285E-04  1.18812309380582E-02
 cg2d: Sum(rhs),rhsMax =   4.55642224718862E-04  1.18818160640477E-02
 cg2d: Sum(rhs),rhsMax =   4.55699982724005E-04  1.18824013791278E-02
 cg2d: Sum(rhs),rhsMax =   4.55757894047755E-04  1.18829868755996E-02
 cg2d: Sum(rhs),rhsMax =   4.55815967218201E-04  1.18835725639005E-02
 cg2d: Sum(rhs),rhsMax =   4.55874207366700E-04  1.18841584340443E-02
 cg2d: Sum(rhs),rhsMax =   4.55932579195300E-04  1.18847444945875E-02
 cg2d: Sum(rhs),rhsMax =   4.55991075547712E-04  1.18853307365340E-02
 cg2d: Sum(rhs),rhsMax =   4.56049710446986E-04  1.18859171677725E-02
 cg2d: Sum(rhs),rhsMax =   4.56108472730475E-04  1.18865037862248E-02
 cg2d: Sum(rhs),rhsMax =   4.56167424237847E-04  1.18870905900009E-02
 cg2d: Sum(rhs),rhsMax =   4.56226484723076E-04  1.18876775787247E-02
 cg2d: Sum(rhs),rhsMax =   4.56285671964936E-04  1.18882647565954E-02
 cg2d: Sum(rhs),rhsMax =   4.56345054596618E-04  1.18888521181651E-02
 cg2d: Sum(rhs),rhsMax =   4.56404577757582E-04  1.18894396707925E-02
 cg2d: Sum(rhs),rhsMax =   4.56464251115342E-04  1.18900274053235E-02
 cg2d: Sum(rhs),rhsMax =   4.56524051156992E-04  1.18906153297701E-02
 cg2d: Sum(rhs),rhsMax =   4.56584019698492E-04  1.18912034378733E-02
 cg2d: Sum(rhs),rhsMax =   4.56644108137411E-04  1.18917917362389E-02
 cg2d: Sum(rhs),rhsMax =   4.56704388775620E-04  1.18923802183421E-02
 cg2d: Sum(rhs),rhsMax =   4.56764762709469E-04  1.18929688906439E-02
 cg2d: Sum(rhs),rhsMax =   4.56825310615829E-04  1.18935577459024E-02
 cg2d: Sum(rhs),rhsMax =   4.56885985627074E-04  1.18941467924586E-02
 cg2d: Sum(rhs),rhsMax =   4.56946837270678E-04  1.18947360222669E-02
 cg2d: Sum(rhs),rhsMax =   4.57007760826996E-04  1.18953254413474E-02
 cg2d: Sum(rhs),rhsMax =   4.57068906610800E-04  1.18959150422854E-02
 cg2d: Sum(rhs),rhsMax =   4.57130108380294E-04  1.18965048374484E-02
 cg2d: Sum(rhs),rhsMax =   4.57191522400993E-04  1.18970948139728E-02
 cg2d: Sum(rhs),rhsMax =   4.57253084542005E-04  1.18976849806296E-02
 cg2d: Sum(rhs),rhsMax =   4.57314814037945E-04  1.18982753295837E-02
 cg2d: Sum(rhs),rhsMax =   4.57376695970674E-04  1.18988658697291E-02
 cg2d: Sum(rhs),rhsMax =   4.57438717403518E-04  1.18994565934877E-02
 cg2d: Sum(rhs),rhsMax =   4.57500915695059E-04  1.19000475064722E-02
 cg2d: Sum(rhs),rhsMax =   4.57563241873533E-04  1.19006386031078E-02
 cg2d: Sum(rhs),rhsMax =   4.57625758206260E-04  1.19012298907350E-02
 cg2d: Sum(rhs),rhsMax =   4.57688388600460E-04  1.19018213619808E-02
 cg2d: Sum(rhs),rhsMax =   4.57751168015571E-04  1.19024130223283E-02
 cg2d: Sum(rhs),rhsMax =   4.57814123554301E-04  1.19030048675163E-02
 cg2d: Sum(rhs),rhsMax =   4.57877243437151E-04  1.19035969015998E-02
 cg2d: Sum(rhs),rhsMax =   4.57940485991246E-04  1.19041891203413E-02
 cg2d: Sum(rhs),rhsMax =   4.58003916795251E-04  1.19047815261548E-02
 cg2d: Sum(rhs),rhsMax =   4.58067456348419E-04  1.19053741163228E-02
 cg2d: Sum(rhs),rhsMax =   4.58131183533290E-04  1.19059668968232E-02
 cg2d: Sum(rhs),rhsMax =   4.58195065167569E-04  1.19065598611686E-02
 cg2d: Sum(rhs),rhsMax =   4.58259036049111E-04  1.19071530137055E-02
 cg2d: Sum(rhs),rhsMax =   4.58323210351488E-04  1.19077463487994E-02
 cg2d: Sum(rhs),rhsMax =   4.58387499734399E-04  1.19083398762351E-02
 cg2d: Sum(rhs),rhsMax =   4.58451988426714E-04  1.19089335836373E-02
 cg2d: Sum(rhs),rhsMax =   4.58516516384970E-04  1.19095274827089E-02
 cg2d: Sum(rhs),rhsMax =   4.58581290879445E-04  1.19101215623851E-02
 cg2d: Sum(rhs),rhsMax =   4.58646211286497E-04  1.19107158327640E-02
 cg2d: Sum(rhs),rhsMax =   4.58711347150064E-04  1.19113102860244E-02
 cg2d: Sum(rhs),rhsMax =   4.58776629929001E-04  1.19119049283404E-02
 cg2d: Sum(rhs),rhsMax =   4.58842033570528E-04  1.19124997549414E-02
 cg2d: Sum(rhs),rhsMax =   4.58907631917305E-04  1.19130947674140E-02
 cg2d: Sum(rhs),rhsMax =   4.58973399491230E-04  1.19136899668086E-02
 cg2d: Sum(rhs),rhsMax =   4.59039312803373E-04  1.19142853502038E-02
(PID.TID 0000.0001)      cg2d_init_res =   3.55931355766869E-03
(PID.TID 0000.0001)      cg2d_iters(min,last) =      -1     372
(PID.TID 0000.0001)      cg2d_last_res =   9.50837403468672E-08
(PID.TID 0000.0001) // =======================================================
(PID.TID 0000.0001) // Begin MONITOR dynamic field statistics
(PID.TID 0000.0001) // =======================================================
(PID.TID 0000.0001) %MON time_tsnumber                =                  9720
(PID.TID 0000.0001) %MON time_secondsf                =   1.1664000000000E+07
(PID.TID 0000.0001) %MON dynstat_eta_max              =   1.0725957407806E-01
(PID.TID 0000.0001) %MON dynstat_eta_min              =  -2.5298003192440E-01
(PID.TID 0000.0001) %MON dynstat_eta_mean             =  -2.6031442202116E-08
(PID.TID 0000.0001) %MON dynstat_eta_sd               =   9.4381066958849E-02
(PID.TID 0000.0001) %MON dynstat_eta_del2             =   5.5500261485693E-07
(PID.TID 0000.0001) %MON dynstat_uvel_max             =   9.3168220334976E-02
(PID.TID 0000.0001) %MON dynstat_uvel_min             =  -1.0471755246185E-01
(PID.TID 0000.0001) %MON dynstat_uvel_mean            =   1.8600724047430E-07
(PID.TID 0000.0001) %MON dynstat_uvel_sd              =   3.8437908365134E-02
(PID.TID 0000.0001) %MON dynstat_uvel_del2            =   8.5857160725696E-07
(PID.TID 0000.0001) %MON dynstat_vvel_max             =   1.0497143623841E-01
(PID.TID 0000.0001) %MON dynstat_vvel_min             =  -8.5765591073082E-02
(PID.TID 0000.0001) %MON dynstat_vvel_mean            =  -4.9174645267245E-08
(PID.TID 0000.0001) %MON dynstat_vvel_sd              =   3.5927167852400E-02
(PID.TID 0000.0001) %MON dynstat_vvel_del2            =   1.1536277957117E-06
(PID.TID 0000.0001) %MON dynstat_wvel_max             =   1.3361172368750E-08
(PID.TID 0000.0001) %MON dynstat_wvel_min             =  -1.6056852880865E-08
(PID.TID 0000.0001) %MON dynstat_wvel_mean            =   3.9232323084514E-21
(PID.TID 0000.0001) %MON dynstat_wvel_sd              =   5.9444465927723E-09
(PID.TID 0000.0001) %MON dynstat_wvel_del2            =   4.8865511886603E-14
(PID.TID 0000.0001) %MON dynstat_theta_max            =   2.0000000000000E+01
(PID.TID 0000.0001) %MON dynstat_theta_min            =   2.0000000000000E+01
(PID.TID 0000.0001) %MON dynstat_theta_mean           =   1.9999999999999E+01
(PID.TID 0000.0001) %MON dynstat_theta_sd             =   1.1972645097557E-12
(PID.TID 0000.0001) %MON dynstat_theta_del2           =   0.0000000000000E+00
(PID.TID 0000.0001) %MON dynstat_salt_max             =   3.0000000000000E+01
(PID.TID 0000.0001) %MON dynstat_salt_min             =   3.0000000000000E+01
(PID.TID 0000.0001) %MON dynstat_salt_mean            =   2.9999999999998E+01
(PID.TID 0000.0001) %MON dynstat_salt_sd              =   2.1529444893531E-12
(PID.TID 0000.0001) %MON dynstat_salt_del2            =   0.0000000000000E+00
(PID.TID 0000.0001) %MON trAdv_CFL_u_max              =   2.5130975037375E-02
(PID.TID 0000.0001) %MON trAdv_CFL_v_max              =   2.5191046661042E-02
(PID.TID 0000.0001) %MON trAdv_CFL_w_max              =   3.3973526941973E-09
(PID.TID 0000.0001) %MON advcfl_uvel_max              =   2.5132212590845E-02
(PID.TID 0000.0001) %MON advcfl_vvel_max              =   2.5193144697219E-02
(PID.TID 0000.0001) %MON advcfl_wvel_max              =   7.7072893828154E-09
(PID.TID 0000.0001) %MON advcfl_W_hf_max              =   0.0000000000000E+00
(PID.TID 0000.0001) %MON pe_b_mean                    =   9.1138849542629E-06
(PID.TID 0000.0001) %MON ke_max                       =   5.5354833047258E-03
(PID.TID 0000.0001) %MON ke_mean                      =   1.3778866569114E-03
(PID.TID 0000.0001) %MON ke_vol                       =   7.2529629296391E+15
(PID.TID 0000.0001) %MON vort_r_min                   =  -3.7846445915981E-06
(PID.TID 0000.0001) %MON vort_r_max                   =   2.9290988525416E-06
(PID.TID 0000.0001) %MON vort_a_mean                  =   1.0615000000000E-04
(PID.TID 0000.0001) %MON vort_a_sd                    =   3.6102151762937E-06
(PID.TID 0000.0001) %MON vort_p_mean                  =   1.1210870169429E-04
(PID.TID 0000.0001) %MON vort_p_sd                    =   2.1062646319026E-05
(PID.TID 0000.0001) %MON surfExpan_theta_mean         =   7.8344396136023E-20
(PID.TID 0000.0001) %MON surfExpan_salt_mean          =   1.1748455426390E-19
(PID.TID 0000.0001) // =======================================================
(PID.TID 0000.0001) // End MONITOR dynamic field statistics
(PID.TID 0000.0001) // =======================================================
 cg2d: Sum(rhs),rhsMax =   4.59105369816195E-04  1.19148809192475E-02
 cg2d: Sum(rhs),rhsMax =   4.59171581238453E-04  1.19154766741918E-02
 cg2d: Sum(rhs),rhsMax =   4.59237991949545E-04  1.19160726137480E-02
 cg2d: Sum(rhs),rhsMax =   4.59304525069365E-04  1.19166687401877E-02
 cg2d: Sum(rhs),rhsMax =   4.59371210856948E-04  1.19172650512120E-02
 cg2d: Sum(rhs),rhsMax =   4.59438062621500E-04  1.19178615474846E-02
 cg2d: Sum(rhs),rhsMax =   4.59505118174832E-04  1.19184582258173E-02
 cg2d: Sum(rhs),rhsMax =   4.59572304011585E-04  1.19190550929585E-02
 cg2d: Sum(rhs),rhsMax =   4.59639686968015E-04  1.19196521433804E-02
 cg2d: Sum(rhs),rhsMax =   4.59707210084289E-04  1.19202493791301E-02
 cg2d: Sum(rhs),rhsMax =   4.59774897669877E-04  1.19208467986829E-02
 cg2d: Sum(rhs),rhsMax =   4.59842768832227E-04  1.19214444027131E-02
 cg2d: Sum(rhs),rhsMax =   4.59910805187942E-04  1.19220421898744E-02
 cg2d: Sum(rhs),rhsMax =   4.59978972973207E-04  1.19226401639140E-02
 cg2d: Sum(rhs),rhsMax =   4.60047361347327E-04  1.19232383202069E-02
 cg2d: Sum(rhs),rhsMax =   4.60115868864953E-04  1.19238366629965E-02
 cg2d: Sum(rhs),rhsMax =   4.60184494112002E-04  1.19244351896489E-02
 cg2d: Sum(rhs),rhsMax =   4.60253337926767E-04  1.19250338959465E-02
 cg2d: Sum(rhs),rhsMax =   4.60322364032754E-04  1.19256327916102E-02
 cg2d: Sum(rhs),rhsMax =   4.60391550470588E-04  1.19262318641502E-02
 cg2d: Sum(rhs),rhsMax =   4.60460901987200E-04  1.19268311255117E-02
 cg2d: Sum(rhs),rhsMax =   4.60530442488031E-04  1.19274305658662E-02
 cg2d: Sum(rhs),rhsMax =   4.60600146024817E-04  1.19280301940888E-02
 cg2d: Sum(rhs),rhsMax =   4.60670003267837E-04  1.19286300022861E-02
 cg2d: Sum(rhs),rhsMax =   4.60740044783645E-04  1.19292299931496E-02
 cg2d: Sum(rhs),rhsMax =   4.60810269822217E-04  1.19298301635204E-02
 cg2d: Sum(rhs),rhsMax =   4.60880669749968E-04  1.19304305228217E-02
 cg2d: Sum(rhs),rhsMax =   4.60951205054769E-04  1.19310310605598E-02
 cg2d: Sum(rhs),rhsMax =   4.61021937986066E-04  1.19316317831291E-02
 cg2d: Sum(rhs),rhsMax =   4.61092830163117E-04  1.19322326873865E-02
 cg2d: Sum(rhs),rhsMax =   4.61163931999145E-04  1.19328337707009E-02
 cg2d: Sum(rhs),rhsMax =   4.61235202869814E-04  1.19334350351815E-02
 cg2d: Sum(rhs),rhsMax =   4.61306636895444E-04  1.19340364847806E-02
 cg2d: Sum(rhs),rhsMax =   4.61378247044892E-04  1.19346381153993E-02
 cg2d: Sum(rhs),rhsMax =   4.61450017155732E-04  1.19352399257609E-02
 cg2d: Sum(rhs),rhsMax =   4.61521991855045E-04  1.19358419162716E-02
 cg2d: Sum(rhs),rhsMax =   4.61594112256615E-04  1.19364440900933E-02
 cg2d: Sum(rhs),rhsMax =   4.61666430738746E-04  1.19370464422278E-02
 cg2d: Sum(rhs),rhsMax =   4.61738865039271E-04  1.19376489772242E-02
 cg2d: Sum(rhs),rhsMax =   4.61811493701319E-04  1.19382516921288E-02
 cg2d: Sum(rhs),rhsMax =   4.61884337338250E-04  1.19388545838720E-02
 cg2d: Sum(rhs),rhsMax =   4.61957358428034E-04  1.19394576588445E-02
 cg2d: Sum(rhs),rhsMax =   4.62030566322890E-04  1.19400609101382E-02
 cg2d: Sum(rhs),rhsMax =   4.62103920336420E-04  1.19406643441583E-02
 cg2d: Sum(rhs),rhsMax =   4.62177497586026E-04  1.19412679549158E-02
 cg2d: Sum(rhs),rhsMax =   4.62251238205197E-04  1.19418717486985E-02
 cg2d: Sum(rhs),rhsMax =   4.62325187726400E-04  1.19424757173584E-02
 cg2d: Sum(rhs),rhsMax =   4.62399299900038E-04  1.19430798684960E-02
 cg2d: Sum(rhs),rhsMax =   4.62473594208420E-04  1.19436841961444E-02
 cg2d: Sum(rhs),rhsMax =   4.62548071364904E-04  1.19442887039943E-02
 cg2d: Sum(rhs),rhsMax =   4.62622741664304E-04  1.19448933842526E-02
 cg2d: Sum(rhs),rhsMax =   4.62697584372552E-04  1.19454982480736E-02
 cg2d: Sum(rhs),rhsMax =   4.62772619489175E-04  1.19461032864704E-02
 cg2d: Sum(rhs),rhsMax =   4.62847850726193E-04  1.19467085048379E-02
 cg2d: Sum(rhs),rhsMax =   4.62923273222025E-04  1.19473138977337E-02
 cg2d: Sum(rhs),rhsMax =   4.62998907098897E-04  1.19479194699123E-02
 cg2d: Sum(rhs),rhsMax =   4.63074677294931E-04  1.19485252180899E-02
 cg2d: Sum(rhs),rhsMax =   4.63150675566111E-04  1.19491311421375E-02
 cg2d: Sum(rhs),rhsMax =   4.63226854863961E-04  1.19497372399951E-02
 cg2d: Sum(rhs),rhsMax =   4.63303221536667E-04  1.19503435179401E-02
 cg2d: Sum(rhs),rhsMax =   4.63379782701849E-04  1.19509499695142E-02
 cg2d: Sum(rhs),rhsMax =   4.63456499409034E-04  1.19515565992236E-02
 cg2d: Sum(rhs),rhsMax =   4.63533439724573E-04  1.19521634009521E-02
 cg2d: Sum(rhs),rhsMax =   4.63610562891528E-04  1.19527703802471E-02
 cg2d: Sum(rhs),rhsMax =   4.63687854941591E-04  1.19533775330154E-02
 cg2d: Sum(rhs),rhsMax =   4.63765365695458E-04  1.19539848604857E-02
 cg2d: Sum(rhs),rhsMax =   4.63843055206199E-04  1.19545923602249E-02
 cg2d: Sum(rhs),rhsMax =   4.63920949607954E-04  1.19552000364629E-02
 cg2d: Sum(rhs),rhsMax =   4.63999013396454E-04  1.19558078843850E-02
 cg2d: Sum(rhs),rhsMax =   4.64077321179182E-04  1.19564159075422E-02
 cg2d: Sum(rhs),rhsMax =   4.64155800896499E-04  1.19570241021434E-02
 cg2d: Sum(rhs),rhsMax =   4.64234509339780E-04  1.19576324728250E-02
(PID.TID 0000.0001)      cg2d_init_res =   3.51380377964490E-03
(PID.TID 0000.0001)      cg2d_iters(min,last) =      -1     372
(PID.TID 0000.0001)      cg2d_last_res =   9.33890448592138E-08
(PID.TID 0000.0001) // =======================================================
(PID.TID 0000.0001) // Begin MONITOR dynamic field statistics
(PID.TID 0000.0001) // =======================================================
(PID.TID 0000.0001) %MON time_tsnumber                =                  9792
(PID.TID 0000.0001) %MON time_secondsf                =   1.1750400000000E+07
(PID.TID 0000.0001) %MON dynstat_eta_max              =   1.0736012172604E-01
(PID.TID 0000.0001) %MON dynstat_eta_min              =  -2.5392202261869E-01
(PID.TID 0000.0001) %MON dynstat_eta_mean             =  -2.6422545547411E-08
(PID.TID 0000.0001) %MON dynstat_eta_sd               =   9.4702652715486E-02
(PID.TID 0000.0001) %MON dynstat_eta_del2             =   5.5719081446638E-07
(PID.TID 0000.0001) %MON dynstat_uvel_max             =   9.3596460635607E-02
(PID.TID 0000.0001) %MON dynstat_uvel_min             =  -1.0509158221328E-01
(PID.TID 0000.0001) %MON dynstat_uvel_mean            =   1.9362609601316E-07
(PID.TID 0000.0001) %MON dynstat_uvel_sd              =   3.8573863952997E-02
(PID.TID 0000.0001) %MON dynstat_uvel_del2            =   8.6212842987672E-07
(PID.TID 0000.0001) %MON dynstat_vvel_max             =   1.0558484276765E-01
(PID.TID 0000.0001) %MON dynstat_vvel_min             =  -8.6407936952215E-02
(PID.TID 0000.0001) %MON dynstat_vvel_mean            =  -7.9235562945838E-08
(PID.TID 0000.0001) %MON dynstat_vvel_sd              =   3.6088634895941E-02
(PID.TID 0000.0001) %MON dynstat_vvel_del2            =   1.1531814280362E-06
(PID.TID 0000.0001) %MON dynstat_wvel_max             =   1.3660184266046E-08
(PID.TID 0000.0001) %MON dynstat_wvel_min             =  -1.5843127407134E-08
(PID.TID 0000.0001) %MON dynstat_wvel_mean            =   3.0390432717778E-24
(PID.TID 0000.0001) %MON dynstat_wvel_sd              =   5.9183570659925E-09
(PID.TID 0000.0001) %MON dynstat_wvel_del2            =   4.8412326272043E-14
(PID.TID 0000.0001) %MON dynstat_theta_max            =   2.0000000000000E+01
(PID.TID 0000.0001) %MON dynstat_theta_min            =   2.0000000000000E+01
(PID.TID 0000.0001) %MON dynstat_theta_mean           =   1.9999999999999E+01
(PID.TID 0000.0001) %MON dynstat_theta_sd             =   1.1972645097557E-12
(PID.TID 0000.0001) %MON dynstat_theta_del2           =   0.0000000000000E+00
(PID.TID 0000.0001) %MON dynstat_salt_max             =   3.0000000000000E+01
(PID.TID 0000.0001) %MON dynstat_salt_min             =   3.0000000000000E+01
(PID.TID 0000.0001) %MON dynstat_salt_mean            =   2.9999999999998E+01
(PID.TID 0000.0001) %MON dynstat_salt_sd              =   2.1529444893531E-12
(PID.TID 0000.0001) %MON dynstat_salt_del2            =   0.0000000000000E+00
(PID.TID 0000.0001) %MON trAdv_CFL_u_max              =   2.5220724333504E-02
(PID.TID 0000.0001) %MON trAdv_CFL_v_max              =   2.5338369346760E-02
(PID.TID 0000.0001) %MON trAdv_CFL_w_max              =   3.4810984002622E-09
(PID.TID 0000.0001) %MON advcfl_uvel_max              =   2.5221979731188E-02
(PID.TID 0000.0001) %MON advcfl_vvel_max              =   2.5340362264237E-02
(PID.TID 0000.0001) %MON advcfl_wvel_max              =   7.6047011554241E-09
(PID.TID 0000.0001) %MON advcfl_W_hf_max              =   0.0000000000000E+00
(PID.TID 0000.0001) %MON pe_b_mean                    =   9.1760984663920E-06
(PID.TID 0000.0001) %MON ke_max                       =   5.6046317832046E-03
(PID.TID 0000.0001) %MON ke_mean                      =   1.3888861001195E-03
(PID.TID 0000.0001) %MON ke_vol                       =   7.2529629296391E+15
(PID.TID 0000.0001) %MON vort_r_min                   =  -3.7984930737884E-06
(PID.TID 0000.0001) %MON vort_r_max                   =   2.9222173014237E-06
(PID.TID 0000.0001) %MON vort_a_mean                  =   1.0615000000000E-04
(PID.TID 0000.0001) %MON vort_a_sd                    =   3.6105553461554E-06
(PID.TID 0000.0001) %MON vort_p_mean                  =   1.1210870169429E-04
(PID.TID 0000.0001) %MON vort_p_sd                    =   2.1062712906408E-05
(PID.TID 0000.0001) %MON surfExpan_theta_mean         =   2.5540486581436E-24
(PID.TID 0000.0001) %MON surfExpan_salt_mean          =   1.0556548548115E-23
(PID.TID 0000.0001) // =======================================================
(PID.TID 0000.0001) // End MONITOR dynamic field statistics
(PID.TID 0000.0001) // =======================================================
 cg2d: Sum(rhs),rhsMax =   4.64313389229991E-04  1.19582410137549E-02
 cg2d: Sum(rhs),rhsMax =   4.64392482108252E-04  1.19588497288680E-02
 cg2d: Sum(rhs),rhsMax =   4.64471745392396E-04  1.19594586136987E-02
 cg2d: Sum(rhs),rhsMax =   4.64551223767446E-04  1.19600676728502E-02
 cg2d: Sum(rhs),rhsMax =   4.64630892681887E-04  1.19606769027719E-02
 cg2d: Sum(rhs),rhsMax =   4.64710763543541E-04  1.19612863033899E-02
 cg2d: Sum(rhs),rhsMax =   4.64790859355252E-04  1.19618958730522E-02
 cg2d: Sum(rhs),rhsMax =   4.64871082506571E-04  1.19625056177336E-02
 cg2d: Sum(rhs),rhsMax =   4.64951578359470E-04  1.19631155280754E-02
 cg2d: Sum(rhs),rhsMax =   4.65032195223928E-04  1.19637256127094E-02
 cg2d: Sum(rhs),rhsMax =   4.65113059265169E-04  1.19643358628485E-02
 cg2d: Sum(rhs),rhsMax =   4.65194118687494E-04  1.19649462883718E-02
 cg2d: Sum(rhs),rhsMax =   4.65275420698477E-04  1.19655568777421E-02
 cg2d: Sum(rhs),rhsMax =   4.65356946926943E-04  1.19661676396242E-02
 cg2d: Sum(rhs),rhsMax =   4.65438656851927E-04  1.19667785669921E-02
 cg2d: Sum(rhs),rhsMax =   4.65520572990954E-04  1.19673896645664E-02
 cg2d: Sum(rhs),rhsMax =   4.65602692625354E-04  1.19680009270285E-02
 cg2d: Sum(rhs),rhsMax =   4.65685027268523E-04  1.19686123613133E-02
 cg2d: Sum(rhs),rhsMax =   4.65767548242818E-04  1.19692239608620E-02
 cg2d: Sum(rhs),rhsMax =   4.65850304469674E-04  1.19698357286366E-02
 cg2d: Sum(rhs),rhsMax =   4.65933260039367E-04  1.19704476604201E-02
 cg2d: Sum(rhs),rhsMax =   4.66016453259391E-04  1.19710597600695E-02
 cg2d: Sum(rhs),rhsMax =   4.66099839397594E-04  1.19716720245845E-02
 cg2d: Sum(rhs),rhsMax =   4.66183448658597E-04  1.19722844574142E-02
 cg2d: Sum(rhs),rhsMax =   4.66267239444818E-04  1.19728970561132E-02
 cg2d: Sum(rhs),rhsMax =   4.66351255577369E-04  1.19735098163767E-02
 cg2d: Sum(rhs),rhsMax =   4.66435509425399E-04  1.19741227411486E-02
 cg2d: Sum(rhs),rhsMax =   4.66519949531952E-04  1.19747358329615E-02
 cg2d: Sum(rhs),rhsMax =   4.66604635166578E-04  1.19753490865845E-02
 cg2d: Sum(rhs),rhsMax =   4.66689486094353E-04  1.19759625081510E-02
 cg2d: Sum(rhs),rhsMax =   4.66774571282058E-04  1.19765760870548E-02
 cg2d: Sum(rhs),rhsMax =   4.66859888225082E-04  1.19771898309211E-02
 cg2d: Sum(rhs),rhsMax =   4.66945421057886E-04  1.19778037375726E-02
 cg2d: Sum(rhs),rhsMax =   4.67031172100358E-04  1.19784178069839E-02
 cg2d: Sum(rhs),rhsMax =   4.67117122109204E-04  1.19790320383388E-02
 cg2d: Sum(rhs),rhsMax =   4.67203304216242E-04  1.19796464310764E-02
 cg2d: Sum(rhs),rhsMax =   4.67289667606337E-04  1.19802609845560E-02
 cg2d: Sum(rhs),rhsMax =   4.67376323032037E-04  1.19808756983336E-02
 cg2d: Sum(rhs),rhsMax =   4.67463125678826E-04  1.19814905724581E-02
 cg2d: Sum(rhs),rhsMax =   4.67550179394280E-04  1.19821056081573E-02
 cg2d: Sum(rhs),rhsMax =   4.67637456727064E-04  1.19827208010276E-02
 cg2d: Sum(rhs),rhsMax =   4.67724995043594E-04  1.19833361538380E-02
 cg2d: Sum(rhs),rhsMax =   4.67812747145524E-04  1.19839516669642E-02
 cg2d: Sum(rhs),rhsMax =   4.67900719334972E-04  1.19845673387447E-02
 cg2d: Sum(rhs),rhsMax =   4.67988903594865E-04  1.19851831665143E-02
 cg2d: Sum(rhs),rhsMax =   4.68077330809521E-04  1.19857991526869E-02
 cg2d: Sum(rhs),rhsMax =   4.68165951436280E-04  1.19864152978340E-02
 cg2d: Sum(rhs),rhsMax =   4.68254848780420E-04  1.19870315987767E-02
 cg2d: Sum(rhs),rhsMax =   4.68343887637883E-04  1.19876480550338E-02
 cg2d: Sum(rhs),rhsMax =   4.68433227778856E-04  1.19882646678786E-02
 cg2d: Sum(rhs),rhsMax =   4.68522713958546E-04  1.19888814402391E-02
 cg2d: Sum(rhs),rhsMax =   4.68612485827932E-04  1.19894983626936E-02
 cg2d: Sum(rhs),rhsMax =   4.68702514866132E-04  1.19901154409848E-02
 cg2d: Sum(rhs),rhsMax =   4.68792759216529E-04  1.19907326738262E-02
 cg2d: Sum(rhs),rhsMax =   4.68883275773815E-04  1.19913500620876E-02
 cg2d: Sum(rhs),rhsMax =   4.68973980727386E-04  1.19919676040685E-02
 cg2d: Sum(rhs),rhsMax =   4.69064942867425E-04  1.19925852984758E-02
 cg2d: Sum(rhs),rhsMax =   4.69156117684657E-04  1.19932031476419E-02
 cg2d: Sum(rhs),rhsMax =   4.69247554161469E-04  1.19938211468062E-02
 cg2d: Sum(rhs),rhsMax =   4.69339147752903E-04  1.19944393007686E-02
 cg2d: Sum(rhs),rhsMax =   4.69431030271059E-04  1.19950576012161E-02
 cg2d: Sum(rhs),rhsMax =   4.69523139733804E-04  1.19956760577711E-02
 cg2d: Sum(rhs),rhsMax =   4.69615516514461E-04  1.19962946629441E-02
 cg2d: Sum(rhs),rhsMax =   4.69708124744138E-04  1.19969134194149E-02
 cg2d: Sum(rhs),rhsMax =   4.69800959595383E-04  1.19975323255786E-02
 cg2d: Sum(rhs),rhsMax =   4.69894043463271E-04  1.19981513798130E-02
 cg2d: Sum(rhs),rhsMax =   4.69987317238829E-04  1.19987705822843E-02
 cg2d: Sum(rhs),rhsMax =   4.70080904618718E-04  1.19993899359672E-02
 cg2d: Sum(rhs),rhsMax =   4.70174690749227E-04  1.20000094376713E-02
 cg2d: Sum(rhs),rhsMax =   4.70268742682578E-04  1.20006290850767E-02
 cg2d: Sum(rhs),rhsMax =   4.70362994959865E-04  1.20012488801135E-02
 cg2d: Sum(rhs),rhsMax =   4.70457540091430E-04  1.20018688226939E-02
(PID.TID 0000.0001)      cg2d_init_res =   3.47234772340578E-03
(PID.TID 0000.0001)      cg2d_iters(min,last) =      -1     372
(PID.TID 0000.0001)      cg2d_last_res =   9.18117019380041E-08
(PID.TID 0000.0001) // =======================================================
(PID.TID 0000.0001) // Begin MONITOR dynamic field statistics
(PID.TID 0000.0001) // =======================================================
(PID.TID 0000.0001) %MON time_tsnumber                =                  9864
(PID.TID 0000.0001) %MON time_secondsf                =   1.1836800000000E+07
(PID.TID 0000.0001) %MON dynstat_eta_max              =   1.0741590098660E-01
(PID.TID 0000.0001) %MON dynstat_eta_min              =  -2.5484665128095E-01
(PID.TID 0000.0001) %MON dynstat_eta_mean             =  -2.6876663746808E-08
(PID.TID 0000.0001) %MON dynstat_eta_sd               =   9.5024720446320E-02
(PID.TID 0000.0001) %MON dynstat_eta_del2             =   5.5937906020887E-07
(PID.TID 0000.0001) %MON dynstat_uvel_max             =   9.4036605868925E-02
(PID.TID 0000.0001) %MON dynstat_uvel_min             =  -1.0547482702272E-01
(PID.TID 0000.0001) %MON dynstat_uvel_mean            =   1.9379835618821E-07
(PID.TID 0000.0001) %MON dynstat_uvel_sd              =   3.8719337437188E-02
(PID.TID 0000.0001) %MON dynstat_uvel_del2            =   8.6601936505692E-07
(PID.TID 0000.0001) %MON dynstat_vvel_max             =   1.0616698682069E-01
(PID.TID 0000.0001) %MON dynstat_vvel_min             =  -8.7039916799441E-02
(PID.TID 0000.0001) %MON dynstat_vvel_mean            =  -1.0991240870264E-07
(PID.TID 0000.0001) %MON dynstat_vvel_sd              =   3.6237100717715E-02
(PID.TID 0000.0001) %MON dynstat_vvel_del2            =   1.1527450957215E-06
(PID.TID 0000.0001) %MON dynstat_wvel_max             =   1.3863220349886E-08
(PID.TID 0000.0001) %MON dynstat_wvel_min             =  -1.5519774137065E-08
(PID.TID 0000.0001) %MON dynstat_wvel_mean            =   6.6521003294645E-21
(PID.TID 0000.0001) %MON dynstat_wvel_sd              =   5.8904995289852E-09
(PID.TID 0000.0001) %MON dynstat_wvel_del2            =   4.8008517938342E-14
(PID.TID 0000.0001) %MON dynstat_theta_max            =   2.0000000000000E+01
(PID.TID 0000.0001) %MON dynstat_theta_min            =   2.0000000000000E+01
(PID.TID 0000.0001) %MON dynstat_theta_mean           =   1.9999999999999E+01
(PID.TID 0000.0001) %MON dynstat_theta_sd             =   1.1972645097557E-12
(PID.TID 0000.0001) %MON dynstat_theta_del2           =   0.0000000000000E+00
(PID.TID 0000.0001) %MON dynstat_salt_max             =   3.0000000000000E+01
(PID.TID 0000.0001) %MON dynstat_salt_min             =   3.0000000000000E+01
(PID.TID 0000.0001) %MON dynstat_salt_mean            =   2.9999999999998E+01
(PID.TID 0000.0001) %MON dynstat_salt_sd              =   2.1529444893531E-12
(PID.TID 0000.0001) %MON dynstat_salt_del2            =   0.0000000000000E+00
(PID.TID 0000.0001) %MON trAdv_CFL_u_max              =   2.5312666424696E-02
(PID.TID 0000.0001) %MON trAdv_CFL_v_max              =   2.5478186711992E-02
(PID.TID 0000.0001) %MON trAdv_CFL_w_max              =   3.5405608671419E-09
(PID.TID 0000.0001) %MON advcfl_uvel_max              =   2.5313958485453E-02
(PID.TID 0000.0001) %MON advcfl_vvel_max              =   2.5480076836965E-02
(PID.TID 0000.0001) %MON advcfl_wvel_max              =   7.4494915857911E-09
(PID.TID 0000.0001) %MON advcfl_W_hf_max              =   0.0000000000000E+00
(PID.TID 0000.0001) %MON pe_b_mean                    =   9.2386173168594E-06
(PID.TID 0000.0001) %MON ke_max                       =   5.6709020226193E-03
(PID.TID 0000.0001) %MON ke_mean                      =   1.3998276309656E-03
(PID.TID 0000.0001) %MON ke_vol                       =   7.2529629296391E+15
(PID.TID 0000.0001) %MON vort_r_min                   =  -3.8126890492759E-06
(PID.TID 0000.0001) %MON vort_r_max                   =   2.9155438005707E-06
(PID.TID 0000.0001) %MON vort_a_mean                  =   1.0615000000000E-04
(PID.TID 0000.0001) %MON vort_a_sd                    =   3.6108998645492E-06
(PID.TID 0000.0001) %MON vort_p_mean                  =   1.1210870169429E-04
(PID.TID 0000.0001) %MON vort_p_sd                    =   2.1062763688385E-05
(PID.TID 0000.0001) %MON surfExpan_theta_mean         =   1.3271674664869E-19
(PID.TID 0000.0001) %MON surfExpan_salt_mean          =   1.9908591736711E-19
(PID.TID 0000.0001) // =======================================================
(PID.TID 0000.0001) // End MONITOR dynamic field statistics
(PID.TID 0000.0001) // =======================================================
 cg2d: Sum(rhs),rhsMax =   4.70552296624497E-04  1.20024889119218E-02
 cg2d: Sum(rhs),rhsMax =   4.70647320363766E-04  1.20031091450868E-02
 cg2d: Sum(rhs),rhsMax =   4.70742582964459E-04  1.20037295241504E-02
 cg2d: Sum(rhs),rhsMax =   4.70838104137068E-04  1.20043500486311E-02
 cg2d: Sum(rhs),rhsMax =   4.70933844541034E-04  1.20049707174699E-02
 cg2d: Sum(rhs),rhsMax =   4.71029855341266E-04  1.20055915304647E-02
 cg2d: Sum(rhs),rhsMax =   4.71125980053992E-04  1.20062124885556E-02
 cg2d: Sum(rhs),rhsMax =   4.71222466244096E-04  1.20068335868006E-02
 cg2d: Sum(rhs),rhsMax =   4.71319174937253E-04  1.20074548303525E-02
 cg2d: Sum(rhs),rhsMax =   4.71416172161876E-04  1.20080762116530E-02
 cg2d: Sum(rhs),rhsMax =   4.71513407329444E-04  1.20086977386445E-02
 cg2d: Sum(rhs),rhsMax =   4.71610888567365E-04  1.20093194051113E-02
 cg2d: Sum(rhs),rhsMax =   4.71708635187808E-04  1.20099412134197E-02
 cg2d: Sum(rhs),rhsMax =   4.71806637141326E-04  1.20105631588529E-02
 cg2d: Sum(rhs),rhsMax =   4.71904903992107E-04  1.20111852466485E-02
 cg2d: Sum(rhs),rhsMax =   4.72003409804937E-04  1.20118074716066E-02
 cg2d: Sum(rhs),rhsMax =   4.72102157602381E-04  1.20124298384050E-02
 cg2d: Sum(rhs),rhsMax =   4.72201170045405E-04  1.20130523411519E-02
 cg2d: Sum(rhs),rhsMax =   4.72300424121006E-04  1.20136749824512E-02
 cg2d: Sum(rhs),rhsMax =   4.72399923267239E-04  1.20142977593154E-02
 cg2d: Sum(rhs),rhsMax =   4.72499676546277E-04  1.20149206747414E-02
 cg2d: Sum(rhs),rhsMax =   4.72599718076406E-04  1.20155437256144E-02
 cg2d: Sum(rhs),rhsMax =   4.72699986471516E-04  1.20161669119190E-02
 cg2d: Sum(rhs),rhsMax =   4.72800554780477E-04  1.20167902325750E-02
 cg2d: Sum(rhs),rhsMax =   4.72901362823802E-04  1.20174136888747E-02
 cg2d: Sum(rhs),rhsMax =   4.73002426899651E-04  1.20180372793214E-02
 cg2d: Sum(rhs),rhsMax =   4.73103753488940E-04  1.20186610035257E-02
 cg2d: Sum(rhs),rhsMax =   4.73205348330140E-04  1.20192848606622E-02
 cg2d: Sum(rhs),rhsMax =   4.73307207520153E-04  1.20199088500643E-02
 cg2d: Sum(rhs),rhsMax =   4.73409295583422E-04  1.20205329717884E-02
 cg2d: Sum(rhs),rhsMax =   4.73511677073485E-04  1.20211572247470E-02
 cg2d: Sum(rhs),rhsMax =   4.73614302560797E-04  1.20217816085687E-02
 cg2d: Sum(rhs),rhsMax =   4.73717183076219E-04  1.20224061234894E-02
 cg2d: Sum(rhs),rhsMax =   4.73820357095268E-04  1.20230307680687E-02
 cg2d: Sum(rhs),rhsMax =   4.73923752200917E-04  1.20236555421446E-02
 cg2d: Sum(rhs),rhsMax =   4.74027443831558E-04  1.20242804438276E-02
 cg2d: Sum(rhs),rhsMax =   4.74131316059790E-04  1.20249054762352E-02
 cg2d: Sum(rhs),rhsMax =   4.74235539728619E-04  1.20255306341113E-02
 cg2d: Sum(rhs),rhsMax =   4.74339991641275E-04  1.20261559206428E-02
 cg2d: Sum(rhs),rhsMax =   4.74444681332113E-04  1.20267813350515E-02
 cg2d: Sum(rhs),rhsMax =   4.74549642354881E-04  1.20274068721279E-02
 cg2d: Sum(rhs),rhsMax =   4.74654937142972E-04  1.20280325342383E-02
 cg2d: Sum(rhs),rhsMax =   4.74760521895974E-04  1.20286583252002E-02
 cg2d: Sum(rhs),rhsMax =   4.74866320700059E-04  1.20292842378173E-02
 cg2d: Sum(rhs),rhsMax =   4.74972415199719E-04  1.20299102769747E-02
 cg2d: Sum(rhs),rhsMax =   4.75078769119527E-04  1.20305364368139E-02
 cg2d: Sum(rhs),rhsMax =   4.75185407057901E-04  1.20311627218527E-02
 cg2d: Sum(rhs),rhsMax =   4.75292274418272E-04  1.20317891268831E-02
 cg2d: Sum(rhs),rhsMax =   4.75399471156226E-04  1.20324156558323E-02
 cg2d: Sum(rhs),rhsMax =   4.75506832689689E-04  1.20330423040546E-02
 cg2d: Sum(rhs),rhsMax =   4.75614545741796E-04  1.20336690747827E-02
 cg2d: Sum(rhs),rhsMax =   4.75722399314761E-04  1.20342959644776E-02
 cg2d: Sum(rhs),rhsMax =   4.75830637307870E-04  1.20349229735244E-02
 cg2d: Sum(rhs),rhsMax =   4.75939128084283E-04  1.20355500994121E-02
 cg2d: Sum(rhs),rhsMax =   4.76047915527262E-04  1.20361773460604E-02
 cg2d: Sum(rhs),rhsMax =   4.76156979863765E-04  1.20368047080428E-02
 cg2d: Sum(rhs),rhsMax =   4.76266329850076E-04  1.20374321900960E-02
 cg2d: Sum(rhs),rhsMax =   4.76375957911612E-04  1.20380597850236E-02
 cg2d: Sum(rhs),rhsMax =   4.76485864277960E-04  1.20386874986341E-02
 cg2d: Sum(rhs),rhsMax =   4.76596008704002E-04  1.20393153234421E-02
 cg2d: Sum(rhs),rhsMax =   4.76706474037317E-04  1.20399432699886E-02
 cg2d: Sum(rhs),rhsMax =   4.76817209174038E-04  1.20405713258056E-02
 cg2d: Sum(rhs),rhsMax =   4.76928238004059E-04  1.20411994958939E-02
 cg2d: Sum(rhs),rhsMax =   4.77039526235335E-04  1.20418277763228E-02
 cg2d: Sum(rhs),rhsMax =   4.77151107260697E-04  1.20424561739899E-02
 cg2d: Sum(rhs),rhsMax =   4.77262934625465E-04  1.20430846804677E-02
 cg2d: Sum(rhs),rhsMax =   4.77375068665018E-04  1.20437132989688E-02
 cg2d: Sum(rhs),rhsMax =   4.77487491703791E-04  1.20443420234783E-02
 cg2d: Sum(rhs),rhsMax =   4.77600126172652E-04  1.20449708651068E-02
 cg2d: Sum(rhs),rhsMax =   4.77713086251549E-04  1.20455998110494E-02
 cg2d: Sum(rhs),rhsMax =   4.77826306946601E-04  1.20462288703213E-02
 cg2d: Sum(rhs),rhsMax =   4.77939828340478E-04  1.20468580311951E-02
(PID.TID 0000.0001)      cg2d_init_res =   3.43520275667369E-03
(PID.TID 0000.0001)      cg2d_iters(min,last) =      -1     372
(PID.TID 0000.0001)      cg2d_last_res =   9.03940044574812E-08
(PID.TID 0000.0001) // =======================================================
(PID.TID 0000.0001) // Begin MONITOR dynamic field statistics
(PID.TID 0000.0001) // =======================================================
(PID.TID 0000.0001) %MON time_tsnumber                =                  9936
(PID.TID 0000.0001) %MON time_secondsf                =   1.1923200000000E+07
(PID.TID 0000.0001) %MON dynstat_eta_max              =   1.0744188910568E-01
(PID.TID 0000.0001) %MON dynstat_eta_min              =  -2.5576088254915E-01
(PID.TID 0000.0001) %MON dynstat_eta_mean             =  -2.7407489568911E-08
(PID.TID 0000.0001) %MON dynstat_eta_sd               =   9.5348332760094E-02
(PID.TID 0000.0001) %MON dynstat_eta_del2             =   5.6157727219610E-07
(PID.TID 0000.0001) %MON dynstat_uvel_max             =   9.4491962009830E-02
(PID.TID 0000.0001) %MON dynstat_uvel_min             =  -1.0586434621722E-01
(PID.TID 0000.0001) %MON dynstat_uvel_mean            =   1.8661003611498E-07
(PID.TID 0000.0001) %MON dynstat_uvel_sd              =   3.8874576720820E-02
(PID.TID 0000.0001) %MON dynstat_uvel_del2            =   8.7021690414922E-07
(PID.TID 0000.0001) %MON dynstat_vvel_max             =   1.0672462877696E-01
(PID.TID 0000.0001) %MON dynstat_vvel_min             =  -8.7649372432302E-02
(PID.TID 0000.0001) %MON dynstat_vvel_mean            =  -1.3993812811316E-07
(PID.TID 0000.0001) %MON dynstat_vvel_sd              =   3.6373072833289E-02
(PID.TID 0000.0001) %MON dynstat_vvel_del2            =   1.1524814803587E-06
(PID.TID 0000.0001) %MON dynstat_wvel_max             =   1.3955164221115E-08
(PID.TID 0000.0001) %MON dynstat_wvel_min             =  -1.5043415278196E-08
(PID.TID 0000.0001) %MON dynstat_wvel_mean            =  -4.1461665012342E-21
(PID.TID 0000.0001) %MON dynstat_wvel_sd              =   5.8601848727225E-09
(PID.TID 0000.0001) %MON dynstat_wvel_del2            =   4.7664341063047E-14
(PID.TID 0000.0001) %MON dynstat_theta_max            =   2.0000000000000E+01
(PID.TID 0000.0001) %MON dynstat_theta_min            =   2.0000000000000E+01
(PID.TID 0000.0001) %MON dynstat_theta_mean           =   1.9999999999999E+01
(PID.TID 0000.0001) %MON dynstat_theta_sd             =   1.1972645097557E-12
(PID.TID 0000.0001) %MON dynstat_theta_del2           =   0.0000000000000E+00
(PID.TID 0000.0001) %MON dynstat_salt_max             =   3.0000000000000E+01
(PID.TID 0000.0001) %MON dynstat_salt_min             =   3.0000000000000E+01
(PID.TID 0000.0001) %MON dynstat_salt_mean            =   2.9999999999998E+01
(PID.TID 0000.0001) %MON dynstat_salt_sd              =   2.1529444893531E-12
(PID.TID 0000.0001) %MON dynstat_salt_del2            =   0.0000000000000E+00
(PID.TID 0000.0001) %MON trAdv_CFL_u_max              =   2.5406139252827E-02
(PID.TID 0000.0001) %MON trAdv_CFL_v_max              =   2.5612065820574E-02
(PID.TID 0000.0001) %MON trAdv_CFL_w_max              =   3.5713825430970E-09
(PID.TID 0000.0001) %MON advcfl_uvel_max              =   2.5407443092132E-02
(PID.TID 0000.0001) %MON advcfl_vvel_max              =   2.5613910906471E-02
(PID.TID 0000.0001) %MON advcfl_wvel_max              =   7.2208393335342E-09
(PID.TID 0000.0001) %MON advcfl_W_hf_max              =   0.0000000000000E+00
(PID.TID 0000.0001) %MON pe_b_mean                    =   9.3016497817543E-06
(PID.TID 0000.0001) %MON ke_max                       =   5.7342579104514E-03
(PID.TID 0000.0001) %MON ke_mean                      =   1.4107375903061E-03
(PID.TID 0000.0001) %MON ke_vol                       =   7.2529629296391E+15
(PID.TID 0000.0001) %MON vort_r_min                   =  -3.8272014038645E-06
(PID.TID 0000.0001) %MON vort_r_max                   =   2.9098007661985E-06
(PID.TID 0000.0001) %MON vort_a_mean                  =   1.0615000000000E-04
(PID.TID 0000.0001) %MON vort_a_sd                    =   3.6112505659710E-06
(PID.TID 0000.0001) %MON vort_p_mean                  =   1.1210870169429E-04
(PID.TID 0000.0001) %MON vort_p_sd                    =   2.1062800349472E-05
(PID.TID 0000.0001) %MON surfExpan_theta_mean         =  -8.3310385345461E-20
(PID.TID 0000.0001) %MON surfExpan_salt_mean          =  -1.2491339460068E-19
(PID.TID 0000.0001) // =======================================================
(PID.TID 0000.0001) // End MONITOR dynamic field statistics
(PID.TID 0000.0001) // =======================================================
 cg2d: Sum(rhs),rhsMax =   4.78053653960480E-04  1.20474873055031E-02
 cg2d: Sum(rhs),rhsMax =   4.78167747703383E-04  1.20481166821794E-02
 cg2d: Sum(rhs),rhsMax =   4.78282134908473E-04  1.20487461676746E-02
 cg2d: Sum(rhs),rhsMax =   4.78396809783182E-04  1.20493757558443E-02
 cg2d: Sum(rhs),rhsMax =   4.78511779054365E-04  1.20500054517709E-02
 cg2d: Sum(rhs),rhsMax =   4.78626923857165E-04  1.20506352510581E-02
 cg2d: Sum(rhs),rhsMax =   4.78742455472036E-04  1.20512651518613E-02
 cg2d: Sum(rhs),rhsMax =   4.78858245066723E-04  1.20518951565788E-02
 cg2d: Sum(rhs),rhsMax =   4.78974350990365E-04  1.20525252654563E-02
 cg2d: Sum(rhs),rhsMax =   4.79090687759575E-04  1.20531554745930E-02
 cg2d: Sum(rhs),rhsMax =   4.79207334511490E-04  1.20537857850656E-02
 cg2d: Sum(rhs),rhsMax =   4.79324273923002E-04  1.20544161959732E-02
 cg2d: Sum(rhs),rhsMax =   4.79441457119418E-04  1.20550467079153E-02
 cg2d: Sum(rhs),rhsMax =   4.79558951036352E-04  1.20556773187513E-02
 cg2d: Sum(rhs),rhsMax =   4.79676724433291E-04  1.20563080266217E-02
 cg2d: Sum(rhs),rhsMax =   4.79794832477717E-04  1.20569388310395E-02
 cg2d: Sum(rhs),rhsMax =   4.79913173722259E-04  1.20575697362098E-02
 cg2d: Sum(rhs),rhsMax =   4.80031857353864E-04  1.20582007348246E-02
 cg2d: Sum(rhs),rhsMax =   4.80150778110698E-04  1.20588318323361E-02
 cg2d: Sum(rhs),rhsMax =   4.80270039391963E-04  1.20594630208413E-02
 cg2d: Sum(rhs),rhsMax =   4.80389551164273E-04  1.20600943083219E-02
 cg2d: Sum(rhs),rhsMax =   4.80509344101642E-04  1.20607256866638E-02
 cg2d: Sum(rhs),rhsMax =   4.80629450837537E-04  1.20613571600964E-02
 cg2d: Sum(rhs),rhsMax =   4.80749870789629E-04  1.20619887246491E-02
 cg2d: Sum(rhs),rhsMax =   4.80870562976443E-04  1.20626203819674E-02
 cg2d: Sum(rhs),rhsMax =   4.80991506258889E-04  1.20632521301068E-02
 cg2d: Sum(rhs),rhsMax =   4.81112808982352E-04  1.20638839690547E-02
 cg2d: Sum(rhs),rhsMax =   4.81234366303922E-04  1.20645158952962E-02
 cg2d: Sum(rhs),rhsMax =   4.81356236977754E-04  1.20651479154459E-02
 cg2d: Sum(rhs),rhsMax =   4.81478407955356E-04  1.20657800202358E-02
 cg2d: Sum(rhs),rhsMax =   4.81600870424957E-04  1.20664122158112E-02
 cg2d: Sum(rhs),rhsMax =   4.81723628808399E-04  1.20670444963536E-02
 cg2d: Sum(rhs),rhsMax =   4.81846522887901E-04  1.20676768670815E-02
 cg2d: Sum(rhs),rhsMax =   4.81969852149272E-04  1.20683093177383E-02
 cg2d: Sum(rhs),rhsMax =   4.82093469556950E-04  1.20689418554054E-02
 cg2d: Sum(rhs),rhsMax =   4.82217380267673E-04  1.20695744784971E-02
 cg2d: Sum(rhs),rhsMax =   4.82341571205618E-04  1.20702071851991E-02
 cg2d: Sum(rhs),rhsMax =   4.82466030036951E-04  1.20708399740076E-02
 cg2d: Sum(rhs),rhsMax =   4.82590820231220E-04  1.20714728482536E-02
 cg2d: Sum(rhs),rhsMax =   4.82715922184884E-04  1.20721058003434E-02
 cg2d: Sum(rhs),rhsMax =   4.82841305827597E-04  1.20727388359557E-02
 cg2d: Sum(rhs),rhsMax =   4.82966980479366E-04  1.20733719495834E-02
 cg2d: Sum(rhs),rhsMax =   4.83092962398683E-04  1.20740051451500E-02
 cg2d: Sum(rhs),rhsMax =   4.83219122969475E-04  1.20746384157392E-02
 cg2d: Sum(rhs),rhsMax =   4.83345706726019E-04  1.20752717671116E-02
 cg2d: Sum(rhs),rhsMax =   4.83472512990824E-04  1.20759051943953E-02
 cg2d: Sum(rhs),rhsMax =   4.83599704496348E-04  1.20765386998294E-02
 cg2d: Sum(rhs),rhsMax =   4.83727152768643E-04  1.20771722791578E-02
 cg2d: Sum(rhs),rhsMax =   4.83854945550196E-04  1.20778059362737E-02
 cg2d: Sum(rhs),rhsMax =   4.83982861205405E-04  1.20784396668826E-02
 cg2d: Sum(rhs),rhsMax =   4.84111242818571E-04  1.20790734722932E-02
 cg2d: Sum(rhs),rhsMax =   4.84239888768504E-04  1.20797073474151E-02
 cg2d: Sum(rhs),rhsMax =   4.84368847261173E-04  1.20803412984113E-02
 cg2d: Sum(rhs),rhsMax =   4.84498078452029E-04  1.20809753184786E-02
 cg2d: Sum(rhs),rhsMax =   4.84627557394592E-04  1.20816094094883E-02
 cg2d: Sum(rhs),rhsMax =   4.84757388361245E-04  1.20822435731575E-02
 cg2d: Sum(rhs),rhsMax =   4.84887562840120E-04  1.20828778025208E-02
 cg2d: Sum(rhs),rhsMax =   4.85017998580351E-04  1.20835121027299E-02
 cg2d: Sum(rhs),rhsMax =   4.85148752201623E-04  1.20841464720837E-02
 cg2d: Sum(rhs),rhsMax =   4.85279777243927E-04  1.20847809060245E-02
 cg2d: Sum(rhs),rhsMax =   4.85411077794621E-04  1.20854154099196E-02
 cg2d: Sum(rhs),rhsMax =   4.85542727121235E-04  1.20860499754585E-02
 cg2d: Sum(rhs),rhsMax =   4.85674587395988E-04  1.20866846093427E-02
 cg2d: Sum(rhs),rhsMax =   4.85806811842062E-04  1.20873193054133E-02
 cg2d: Sum(rhs),rhsMax =   4.85939337840805E-04  1.20879540660227E-02
 cg2d: Sum(rhs),rhsMax =   4.86072168670351E-04  1.20885888862639E-02
 cg2d: Sum(rhs),rhsMax =   4.86205303705429E-04  1.20892237729217E-02
 cg2d: Sum(rhs),rhsMax =   4.86338740599064E-04  1.20898587185849E-02
 cg2d: Sum(rhs),rhsMax =   4.86472475458431E-04  1.20904937259381E-02
 cg2d: Sum(rhs),rhsMax =   4.86606542992832E-04  1.20911287912381E-02
 cg2d: Sum(rhs),rhsMax =   4.86740863908717E-04  1.20917639174368E-02
 cg2d: Sum(rhs),rhsMax =   4.86875473735097E-04  1.20923991002629E-02
(PID.TID 0000.0001)      cg2d_init_res =   3.40236167353984E-03
(PID.TID 0000.0001)      cg2d_iters(min,last) =      -1     372
(PID.TID 0000.0001)      cg2d_last_res =   8.88378061141185E-08
(PID.TID 0000.0001) // =======================================================
(PID.TID 0000.0001) // Begin MONITOR dynamic field statistics
(PID.TID 0000.0001) // =======================================================
(PID.TID 0000.0001) %MON time_tsnumber                =                 10008
(PID.TID 0000.0001) %MON time_secondsf                =   1.2009600000000E+07
(PID.TID 0000.0001) %MON dynstat_eta_max              =   1.0745396376805E-01
(PID.TID 0000.0001) %MON dynstat_eta_min              =  -2.5667165231356E-01
(PID.TID 0000.0001) %MON dynstat_eta_mean             =  -2.8026552004201E-08
(PID.TID 0000.0001) %MON dynstat_eta_sd               =   9.5674341489753E-02
(PID.TID 0000.0001) %MON dynstat_eta_del2             =   5.6379450004796E-07
(PID.TID 0000.0001) %MON dynstat_uvel_max             =   9.4963229618642E-02
(PID.TID 0000.0001) %MON dynstat_uvel_min             =  -1.0625668008903E-01
(PID.TID 0000.0001) %MON dynstat_uvel_mean            =   1.7245056801987E-07
(PID.TID 0000.0001) %MON dynstat_uvel_sd              =   3.9039374554407E-02
(PID.TID 0000.0001) %MON dynstat_uvel_del2            =   8.7467934003047E-07
(PID.TID 0000.0001) %MON dynstat_vvel_max             =   1.0726341200277E-01
(PID.TID 0000.0001) %MON dynstat_vvel_min             =  -8.8226985712457E-02
(PID.TID 0000.0001) %MON dynstat_vvel_mean            =  -1.6809185601849E-07
(PID.TID 0000.0001) %MON dynstat_vvel_sd              =   3.6497487366492E-02
(PID.TID 0000.0001) %MON dynstat_vvel_del2            =   1.1525480255471E-06
(PID.TID 0000.0001) %MON dynstat_wvel_max             =   1.3909418438561E-08
(PID.TID 0000.0001) %MON dynstat_wvel_min             =  -1.4400274809450E-08
(PID.TID 0000.0001) %MON dynstat_wvel_mean            =  -1.2373792531069E-20
(PID.TID 0000.0001) %MON dynstat_wvel_sd              =   5.8273195066348E-09
(PID.TID 0000.0001) %MON dynstat_wvel_del2            =   4.7379632663731E-14
(PID.TID 0000.0001) %MON dynstat_theta_max            =   2.0000000000000E+01
(PID.TID 0000.0001) %MON dynstat_theta_min            =   2.0000000000000E+01
(PID.TID 0000.0001) %MON dynstat_theta_mean           =   1.9999999999999E+01
(PID.TID 0000.0001) %MON dynstat_theta_sd             =   1.1972645097557E-12
(PID.TID 0000.0001) %MON dynstat_theta_del2           =   0.0000000000000E+00
(PID.TID 0000.0001) %MON dynstat_salt_max             =   3.0000000000000E+01
(PID.TID 0000.0001) %MON dynstat_salt_min             =   3.0000000000000E+01
(PID.TID 0000.0001) %MON dynstat_salt_mean            =   2.9999999999998E+01
(PID.TID 0000.0001) %MON dynstat_salt_sd              =   2.1529444893531E-12
(PID.TID 0000.0001) %MON dynstat_salt_del2            =   0.0000000000000E+00
(PID.TID 0000.0001) %MON trAdv_CFL_u_max              =   2.5500292490918E-02
(PID.TID 0000.0001) %MON trAdv_CFL_v_max              =   2.5741469255654E-02
(PID.TID 0000.0001) %MON trAdv_CFL_w_max              =   3.5666880945255E-09
(PID.TID 0000.0001) %MON advcfl_uvel_max              =   2.5501603221368E-02
(PID.TID 0000.0001) %MON advcfl_vvel_max              =   2.5743218880666E-02
(PID.TID 0000.0001) %MON advcfl_wvel_max              =   6.9121319085360E-09
(PID.TID 0000.0001) %MON advcfl_W_hf_max              =   0.0000000000000E+00
(PID.TID 0000.0001) %MON pe_b_mean                    =   9.3653656971710E-06
(PID.TID 0000.0001) %MON ke_max                       =   5.7947650109897E-03
(PID.TID 0000.0001) %MON ke_mean                      =   1.4216413897743E-03
(PID.TID 0000.0001) %MON ke_vol                       =   7.2529629296391E+15
(PID.TID 0000.0001) %MON vort_r_min                   =  -3.8419754077839E-06
(PID.TID 0000.0001) %MON vort_r_max                   =   2.9056470511906E-06
(PID.TID 0000.0001) %MON vort_a_mean                  =   1.0615000000000E-04
(PID.TID 0000.0001) %MON vort_a_sd                    =   3.6116090150335E-06
(PID.TID 0000.0001) %MON vort_p_mean                  =   1.1210870169429E-04
(PID.TID 0000.0001) %MON vort_p_sd                    =   2.1062825122138E-05
(PID.TID 0000.0001) %MON surfExpan_theta_mean         =  -2.4726415625682E-19
(PID.TID 0000.0001) %MON surfExpan_salt_mean          =  -3.7090791465942E-19
(PID.TID 0000.0001) // =======================================================
(PID.TID 0000.0001) // End MONITOR dynamic field statistics
(PID.TID 0000.0001) // =======================================================
 cg2d: Sum(rhs),rhsMax =   4.87010401885419E-04  1.20930343410745E-02
 cg2d: Sum(rhs),rhsMax =   4.87145660086509E-04  1.20936696373396E-02
 cg2d: Sum(rhs),rhsMax =   4.87281173078523E-04  1.20943049923796E-02
 cg2d: Sum(rhs),rhsMax =   4.87417004548820E-04  1.20949404012767E-02
 cg2d: Sum(rhs),rhsMax =   4.87553149189796E-04  1.20955758639742E-02
 cg2d: Sum(rhs),rhsMax =   4.87689560722206E-04  1.20962113783833E-02
 cg2d: Sum(rhs),rhsMax =   4.87826288499011E-04  1.20968469498293E-02
 cg2d: Sum(rhs),rhsMax =   4.87963334036511E-04  1.20974825709335E-02
 cg2d: Sum(rhs),rhsMax =   4.88100690227299E-04  1.20981182437579E-02
 cg2d: Sum(rhs),rhsMax =   4.88238306299472E-04  1.20987539651597E-02
 cg2d: Sum(rhs),rhsMax =   4.88376249320809E-04  1.20993897403146E-02
 cg2d: Sum(rhs),rhsMax =   4.88514508869888E-04  1.21000255621691E-02
 cg2d: Sum(rhs),rhsMax =   4.88653061014472E-04  1.21006614325058E-02
 cg2d: Sum(rhs),rhsMax =   4.88791933898492E-04  1.21012973488537E-02
 cg2d: Sum(rhs),rhsMax =   4.88931080060156E-04  1.21019333139497E-02
 cg2d: Sum(rhs),rhsMax =   4.89070554232099E-04  1.21025693230188E-02
 cg2d: Sum(rhs),rhsMax =   4.89210310061812E-04  1.21032053788484E-02
 cg2d: Sum(rhs),rhsMax =   4.89350355247803E-04  1.21038414776852E-02
 cg2d: Sum(rhs),rhsMax =   4.89490661341897E-04  1.21044776210738E-02
 cg2d: Sum(rhs),rhsMax =   4.89631327658753E-04  1.21051138054553E-02
 cg2d: Sum(rhs),rhsMax =   4.89772236956513E-04  1.21057500329564E-02
 cg2d: Sum(rhs),rhsMax =   4.89913477726690E-04  1.21063863018909E-02
 cg2d: Sum(rhs),rhsMax =   4.90055053855087E-04  1.21070226093285E-02
 cg2d: Sum(rhs),rhsMax =   4.90196907579388E-04  1.21076589573980E-02
 cg2d: Sum(rhs),rhsMax =   4.90339104737381E-04  1.21082953438079E-02
 cg2d: Sum(rhs),rhsMax =   4.90481523281952E-04  1.21089317706116E-02
 cg2d: Sum(rhs),rhsMax =   4.90624315821610E-04  1.21095682296391E-02
 cg2d: Sum(rhs),rhsMax =   4.90767375168798E-04  1.21102047268334E-02
 cg2d: Sum(rhs),rhsMax =   4.90910789815351E-04  1.21108412602005E-02
 cg2d: Sum(rhs),rhsMax =   4.91054465982922E-04  1.21114778293681E-02
 cg2d: Sum(rhs),rhsMax =   4.91198477795518E-04  1.21121144304084E-02
 cg2d: Sum(rhs),rhsMax =   4.91342706903710E-04  1.21127510661074E-02
 cg2d: Sum(rhs),rhsMax =   4.91487303041820E-04  1.21133877317637E-02
 cg2d: Sum(rhs),rhsMax =   4.91654978887651E-04  1.21140244303770E-02
 cg2d: Sum(rhs),rhsMax =   4.91823141076594E-04  1.21146611592630E-02
 cg2d: Sum(rhs),rhsMax =   4.91991753424556E-04  1.21152979175932E-02
 cg2d: Sum(rhs),rhsMax =   4.92160724211143E-04  1.21159347047051E-02
 cg2d: Sum(rhs),rhsMax =   4.92330093719210E-04  1.21165715202081E-02
 cg2d: Sum(rhs),rhsMax =   4.92499731778735E-04  1.21172083616223E-02
 cg2d: Sum(rhs),rhsMax =   4.92669814444260E-04  1.21178452329217E-02
 cg2d: Sum(rhs),rhsMax =   4.92840054032545E-04  1.21184821289426E-02
 cg2d: Sum(rhs),rhsMax =   4.93010817694794E-04  1.21191190490508E-02
 cg2d: Sum(rhs),rhsMax =   4.93181803991279E-04  1.21197559925096E-02
 cg2d: Sum(rhs),rhsMax =   4.93353254463827E-04  1.21203929594647E-02
 cg2d: Sum(rhs),rhsMax =   4.93525012082073E-04  1.21210299492571E-02
 cg2d: Sum(rhs),rhsMax =   4.93697140055134E-04  1.21216669582132E-02
 cg2d: Sum(rhs),rhsMax =   4.93869631758299E-04  1.21223039896766E-02
 cg2d: Sum(rhs),rhsMax =   4.94042498121308E-04  1.21229410399170E-02
 cg2d: Sum(rhs),rhsMax =   4.94215606128074E-04  1.21235781114326E-02
 cg2d: Sum(rhs),rhsMax =   4.94389157637137E-04  1.21242151971097E-02
 cg2d: Sum(rhs),rhsMax =   4.94562993830746E-04  1.21248523032408E-02
 cg2d: Sum(rhs),rhsMax =   4.94737261173942E-04  1.21254894241832E-02
 cg2d: Sum(rhs),rhsMax =   4.94911799712307E-04  1.21261265633836E-02
 cg2d: Sum(rhs),rhsMax =   4.95086747055352E-04  1.21267637130184E-02
 cg2d: Sum(rhs),rhsMax =   4.95261963074228E-04  1.21274008777267E-02
 cg2d: Sum(rhs),rhsMax =   4.95437580397946E-04  1.21280380565993E-02
 cg2d: Sum(rhs),rhsMax =   4.95613553856467E-04  1.21286752499556E-02
 cg2d: Sum(rhs),rhsMax =   4.95789926122404E-04  1.21293124500827E-02
 cg2d: Sum(rhs),rhsMax =   4.95966622020366E-04  1.21299496640489E-02
 cg2d: Sum(rhs),rhsMax =   4.96143702187639E-04  1.21305868855701E-02
 cg2d: Sum(rhs),rhsMax =   4.96320928776587E-04  1.21312241178399E-02
 cg2d: Sum(rhs),rhsMax =   4.96498684843028E-04  1.21318613550971E-02
 cg2d: Sum(rhs),rhsMax =   4.96676740061378E-04  1.21324986039879E-02
 cg2d: Sum(rhs),rhsMax =   4.96855197087937E-04  1.21331358548174E-02
 cg2d: Sum(rhs),rhsMax =   4.97034026437406E-04  1.21337731157157E-02
 cg2d: Sum(rhs),rhsMax =   4.97213185283486E-04  1.21344103762911E-02
 cg2d: Sum(rhs),rhsMax =   4.97392746401759E-04  1.21350476434692E-02
 cg2d: Sum(rhs),rhsMax =   4.97572539353876E-04  1.21356849075704E-02
 cg2d: Sum(rhs),rhsMax =   4.97752739931398E-04  1.21363221813543E-02
 cg2d: Sum(rhs),rhsMax =   4.97933295416779E-04  1.21369594499009E-02
 cg2d: Sum(rhs),rhsMax =   4.98114197515154E-04  1.21375967232584E-02
 cg2d: Sum(rhs),rhsMax =   4.98295503939285E-04  1.21382339905670E-02
(PID.TID 0000.0001)      cg2d_init_res =   3.37365561561307E-03
(PID.TID 0000.0001)      cg2d_iters(min,last) =      -1     371
(PID.TID 0000.0001)      cg2d_last_res =   9.86454788867808E-08
(PID.TID 0000.0001) // =======================================================
(PID.TID 0000.0001) // Begin MONITOR dynamic field statistics
(PID.TID 0000.0001) // =======================================================
(PID.TID 0000.0001) %MON time_tsnumber                =                 10080
(PID.TID 0000.0001) %MON time_secondsf                =   1.2096000000000E+07
(PID.TID 0000.0001) %MON dynstat_eta_max              =   1.0746818516344E-01
(PID.TID 0000.0001) %MON dynstat_eta_min              =  -2.5758560241606E-01
(PID.TID 0000.0001) %MON dynstat_eta_mean             =  -2.8795172331533E-08
(PID.TID 0000.0001) %MON dynstat_eta_sd               =   9.6003360919196E-02
(PID.TID 0000.0001) %MON dynstat_eta_del2             =   5.6603852104982E-07
(PID.TID 0000.0001) %MON dynstat_uvel_max             =   9.5445535688457E-02
(PID.TID 0000.0001) %MON dynstat_uvel_min             =  -1.0665639969224E-01
(PID.TID 0000.0001) %MON dynstat_uvel_mean            =   1.5199150948517E-07
(PID.TID 0000.0001) %MON dynstat_uvel_sd              =   3.9213083636321E-02
(PID.TID 0000.0001) %MON dynstat_uvel_del2            =   8.7934999668060E-07
(PID.TID 0000.0001) %MON dynstat_vvel_max             =   1.0777569388866E-01
(PID.TID 0000.0001) %MON dynstat_vvel_min             =  -8.8768576178339E-02
(PID.TID 0000.0001) %MON dynstat_vvel_mean            =  -1.9324839707437E-07
(PID.TID 0000.0001) %MON dynstat_vvel_sd              =   3.6611670507002E-02
(PID.TID 0000.0001) %MON dynstat_vvel_del2            =   1.1530912587794E-06
(PID.TID 0000.0001) %MON dynstat_wvel_max             =   1.3711056942120E-08
(PID.TID 0000.0001) %MON dynstat_wvel_min             =  -1.3584769554436E-08
(PID.TID 0000.0001) %MON dynstat_wvel_mean            =   8.3999774850836E-21
(PID.TID 0000.0001) %MON dynstat_wvel_sd              =   5.7922747541592E-09
(PID.TID 0000.0001) %MON dynstat_wvel_del2            =   4.7446558872901E-14
(PID.TID 0000.0001) %MON dynstat_theta_max            =   2.0000000000000E+01
(PID.TID 0000.0001) %MON dynstat_theta_min            =   2.0000000000000E+01
(PID.TID 0000.0001) %MON dynstat_theta_mean           =   1.9999999999999E+01
(PID.TID 0000.0001) %MON dynstat_theta_sd             =   1.1972645097557E-12
(PID.TID 0000.0001) %MON dynstat_theta_del2           =   0.0000000000000E+00
(PID.TID 0000.0001) %MON dynstat_salt_max             =   3.0000000000000E+01
(PID.TID 0000.0001) %MON dynstat_salt_min             =   3.0000000000000E+01
(PID.TID 0000.0001) %MON dynstat_salt_mean            =   2.9999999999998E+01
(PID.TID 0000.0001) %MON dynstat_salt_sd              =   2.1529444893531E-12
(PID.TID 0000.0001) %MON dynstat_salt_del2            =   0.0000000000000E+00
(PID.TID 0000.0001) %MON trAdv_CFL_u_max              =   2.5596202013769E-02
(PID.TID 0000.0001) %MON trAdv_CFL_v_max              =   2.5864494026579E-02
(PID.TID 0000.0001) %MON trAdv_CFL_w_max              =   3.5227074728136E-09
(PID.TID 0000.0001) %MON advcfl_uvel_max              =   2.5597535926139E-02
(PID.TID 0000.0001) %MON advcfl_vvel_max              =   2.5866166533279E-02
(PID.TID 0000.0001) %MON advcfl_wvel_max              =   6.5813073322177E-09
(PID.TID 0000.0001) %MON advcfl_W_hf_max              =   0.0000000000000E+00
(PID.TID 0000.0001) %MON pe_b_mean                    =   9.4298905342590E-06
(PID.TID 0000.0001) %MON ke_max                       =   5.8525832071731E-03
(PID.TID 0000.0001) %MON ke_mean                      =   1.4325625053471E-03
(PID.TID 0000.0001) %MON ke_vol                       =   7.2529629296391E+15
(PID.TID 0000.0001) %MON vort_r_min                   =  -3.8569347827238E-06
(PID.TID 0000.0001) %MON vort_r_max                   =   2.9037309744290E-06
(PID.TID 0000.0001) %MON vort_a_mean                  =   1.0615000000000E-04
(PID.TID 0000.0001) %MON vort_a_sd                    =   3.6119764372359E-06
(PID.TID 0000.0001) %MON vort_p_mean                  =   1.1210870169429E-04
(PID.TID 0000.0001) %MON vort_p_sd                    =   2.1062840685850E-05
(PID.TID 0000.0001) %MON surfExpan_theta_mean         =   1.6781090687758E-19
(PID.TID 0000.0001) %MON surfExpan_salt_mean          =   2.5164131396583E-19
(PID.TID 0000.0001) // =======================================================
(PID.TID 0000.0001) // End MONITOR dynamic field statistics
(PID.TID 0000.0001) // =======================================================
 cg2d: Sum(rhs),rhsMax =   4.98477136535558E-04  1.21388712619839E-02
 cg2d: Sum(rhs),rhsMax =   4.98659109710748E-04  1.21395085248961E-02
 cg2d: Sum(rhs),rhsMax =   4.98841401038258E-04  1.21401457912152E-02
 cg2d: Sum(rhs),rhsMax =   4.99024017358908E-04  1.21407830472857E-02
 cg2d: Sum(rhs),rhsMax =   4.99206978038002E-04  1.21414203045468E-02
 cg2d: Sum(rhs),rhsMax =   4.99390354195179E-04  1.21420575498531E-02
 cg2d: Sum(rhs),rhsMax =   4.99574049510634E-04  1.21426947933178E-02
 cg2d: Sum(rhs),rhsMax =   4.99758129129035E-04  1.21433320234303E-02
 cg2d: Sum(rhs),rhsMax =   4.99942535252051E-04  1.21439692508021E-02
 cg2d: Sum(rhs),rhsMax =   5.00127265284398E-04  1.21446064633223E-02
 cg2d: Sum(rhs),rhsMax =   5.00312372417724E-04  1.21452436694594E-02
 cg2d: Sum(rhs),rhsMax =   5.00497795927398E-04  1.21458808584688E-02
 cg2d: Sum(rhs),rhsMax =   5.00683568615677E-04  1.21465180430676E-02
 cg2d: Sum(rhs),rhsMax =   5.00869734901608E-04  1.21471552087628E-02
 cg2d: Sum(rhs),rhsMax =   5.01056227195106E-04  1.21477923640636E-02
 cg2d: Sum(rhs),rhsMax =   5.01243110084666E-04  1.21484294996436E-02
 cg2d: Sum(rhs),rhsMax =   5.01430320148825E-04  1.21490666259144E-02
 cg2d: Sum(rhs),rhsMax =   5.01617854165260E-04  1.21497037297916E-02
 cg2d: Sum(rhs),rhsMax =   5.01805751302372E-04  1.21503408205671E-02
 cg2d: Sum(rhs),rhsMax =   5.01993975286462E-04  1.21509778870398E-02
 cg2d: Sum(rhs),rhsMax =   5.02182540862246E-04  1.21516149414136E-02
 cg2d: Sum(rhs),rhsMax =   5.02371462266690E-04  1.21522519694589E-02
 cg2d: Sum(rhs),rhsMax =   5.02560737434515E-04  1.21528889823862E-02
 cg2d: Sum(rhs),rhsMax =   5.02750271888898E-04  1.21535259665379E-02
 cg2d: Sum(rhs),rhsMax =   5.02940253150536E-04  1.21541629348941E-02
 cg2d: Sum(rhs),rhsMax =   5.03130548154859E-04  1.21547998734630E-02
 cg2d: Sum(rhs),rhsMax =   5.03321208549455E-04  1.21554367926515E-02
 cg2d: Sum(rhs),rhsMax =   5.03512239245368E-04  1.21560736804357E-02
 cg2d: Sum(rhs),rhsMax =   5.03703584454163E-04  1.21567105466160E-02
 cg2d: Sum(rhs),rhsMax =   5.03895324795684E-04  1.21573473805795E-02
 cg2d: Sum(rhs),rhsMax =   5.04087229020955E-04  1.21579841911455E-02
 cg2d: Sum(rhs),rhsMax =   5.04279635745234E-04  1.21586209662351E-02
 cg2d: Sum(rhs),rhsMax =   5.04472331112801E-04  1.21592577151267E-02
 cg2d: Sum(rhs),rhsMax =   5.04665401959918E-04  1.21598944301661E-02
 cg2d: Sum(rhs),rhsMax =   5.04858846835305E-04  1.21605311166167E-02
 cg2d: Sum(rhs),rhsMax =   5.05052603613436E-04  1.21611677671049E-02
 cg2d: Sum(rhs),rhsMax =   5.05246610408445E-04  1.21618043856360E-02
 cg2d: Sum(rhs),rhsMax =   5.05441032511406E-04  1.21624409679457E-02
 cg2d: Sum(rhs),rhsMax =   5.05635794357369E-04  1.21630775185189E-02
 cg2d: Sum(rhs),rhsMax =   5.05830940037878E-04  1.21637140274797E-02
 cg2d: Sum(rhs),rhsMax =   5.06026415744270E-04  1.21643505031256E-02
 cg2d: Sum(rhs),rhsMax =   5.06222260819627E-04  1.21649869364412E-02
 cg2d: Sum(rhs),rhsMax =   5.06418256334835E-04  1.21656233329669E-02
 cg2d: Sum(rhs),rhsMax =   5.06614746754952E-04  1.21662596863549E-02
 cg2d: Sum(rhs),rhsMax =   5.06811547595078E-04  1.21668960023706E-02
 cg2d: Sum(rhs),rhsMax =   5.07008752787448E-04  1.21675322725617E-02
 cg2d: Sum(rhs),rhsMax =   5.07206191007453E-04  1.21681685024014E-02
 cg2d: Sum(rhs),rhsMax =   5.07404026514098E-04  1.21688046853138E-02
 cg2d: Sum(rhs),rhsMax =   5.07602156744235E-04  1.21694408257430E-02
 cg2d: Sum(rhs),rhsMax =   5.07800659769473E-04  1.21700769182809E-02
 cg2d: Sum(rhs),rhsMax =   5.07999513016914E-04  1.21707129668310E-02
 cg2d: Sum(rhs),rhsMax =   5.08198699819390E-04  1.21713489638707E-02
 cg2d: Sum(rhs),rhsMax =   5.08398202454515E-04  1.21719849154172E-02
 cg2d: Sum(rhs),rhsMax =   5.08598054511700E-04  1.21726208157317E-02
 cg2d: Sum(rhs),rhsMax =   5.08798172753386E-04  1.21732566681185E-02
 cg2d: Sum(rhs),rhsMax =   5.08998675986718E-04  1.21738924645052E-02
 cg2d: Sum(rhs),rhsMax =   5.09199511571174E-04  1.21745282129119E-02
 cg2d: Sum(rhs),rhsMax =   5.09400718222235E-04  1.21751639044599E-02
 cg2d: Sum(rhs),rhsMax =   5.09602186455379E-04  1.21757995448682E-02
 cg2d: Sum(rhs),rhsMax =   5.09804027416825E-04  1.21764351255135E-02
 cg2d: Sum(rhs),rhsMax =   5.10006118180502E-04  1.21770706526236E-02
 cg2d: Sum(rhs),rhsMax =   5.10208586339073E-04  1.21777061216107E-02
 cg2d: Sum(rhs),rhsMax =   5.10411417300618E-04  1.21783415345033E-02
 cg2d: Sum(rhs),rhsMax =   5.10614587673795E-04  1.21789768855665E-02
 cg2d: Sum(rhs),rhsMax =   5.10818028117139E-04  1.21796121784770E-02
 cg2d: Sum(rhs),rhsMax =   5.11021823656256E-04  1.21802474104416E-02
 cg2d: Sum(rhs),rhsMax =   5.11225850022588E-04  1.21808825825662E-02
 cg2d: Sum(rhs),rhsMax =   5.11430271638762E-04  1.21815176872928E-02
 cg2d: Sum(rhs),rhsMax =   5.11634993428586E-04  1.21821527322243E-02
 cg2d: Sum(rhs),rhsMax =   5.11840058385222E-04  1.21827877098110E-02
 cg2d: Sum(rhs),rhsMax =   5.12045482927928E-04  1.21834226242681E-02
 cg2d: Sum(rhs),rhsMax =   5.12251202540257E-04  1.21840574692772E-02
(PID.TID 0000.0001)      cg2d_init_res =   3.34886363522662E-03
(PID.TID 0000.0001)      cg2d_iters(min,last) =      -1     371
(PID.TID 0000.0001)      cg2d_last_res =   9.51662418048091E-08
(PID.TID 0000.0001) // =======================================================
(PID.TID 0000.0001) // Begin MONITOR dynamic field statistics
(PID.TID 0000.0001) // =======================================================
(PID.TID 0000.0001) %MON time_tsnumber                =                 10152
(PID.TID 0000.0001) %MON time_secondsf                =   1.2182400000000E+07
(PID.TID 0000.0001) %MON dynstat_eta_max              =   1.0750007888116E-01
(PID.TID 0000.0001) %MON dynstat_eta_min              =  -2.5850883094820E-01
(PID.TID 0000.0001) %MON dynstat_eta_mean             =  -2.9714494629110E-08
(PID.TID 0000.0001) %MON dynstat_eta_sd               =   9.6335751647098E-02
(PID.TID 0000.0001) %MON dynstat_eta_del2             =   5.6831548353334E-07
(PID.TID 0000.0001) %MON dynstat_uvel_max             =   9.5938001972700E-02
(PID.TID 0000.0001) %MON dynstat_uvel_min             =  -1.0705599974046E-01
(PID.TID 0000.0001) %MON dynstat_uvel_mean            =   1.2615355720524E-07
(PID.TID 0000.0001) %MON dynstat_uvel_sd              =   3.9394647980108E-02
(PID.TID 0000.0001) %MON dynstat_uvel_del2            =   8.8415797555469E-07
(PID.TID 0000.0001) %MON dynstat_vvel_max             =   1.0826633355685E-01
(PID.TID 0000.0001) %MON dynstat_vvel_min             =  -8.9271389075755E-02
(PID.TID 0000.0001) %MON dynstat_vvel_mean            =  -2.1442295817431E-07
(PID.TID 0000.0001) %MON dynstat_vvel_sd              =   3.6717288706331E-02
(PID.TID 0000.0001) %MON dynstat_vvel_del2            =   1.1542409129292E-06
(PID.TID 0000.0001) %MON dynstat_wvel_max             =   1.3348162323236E-08
(PID.TID 0000.0001) %MON dynstat_wvel_min             =  -1.2603908553720E-08
(PID.TID 0000.0001) %MON dynstat_wvel_mean            =   1.5977320934981E-21
(PID.TID 0000.0001) %MON dynstat_wvel_sd              =   5.7556653074774E-09
(PID.TID 0000.0001) %MON dynstat_wvel_del2            =   4.7237844371245E-14
(PID.TID 0000.0001) %MON dynstat_theta_max            =   2.0000000000000E+01
(PID.TID 0000.0001) %MON dynstat_theta_min            =   2.0000000000000E+01
(PID.TID 0000.0001) %MON dynstat_theta_mean           =   1.9999999999999E+01
(PID.TID 0000.0001) %MON dynstat_theta_sd             =   1.1972645097557E-12
(PID.TID 0000.0001) %MON dynstat_theta_del2           =   0.0000000000000E+00
(PID.TID 0000.0001) %MON dynstat_salt_max             =   3.0000000000000E+01
(PID.TID 0000.0001) %MON dynstat_salt_min             =   3.0000000000000E+01
(PID.TID 0000.0001) %MON dynstat_salt_mean            =   2.9999999999998E+01
(PID.TID 0000.0001) %MON dynstat_salt_sd              =   2.1529444893531E-12
(PID.TID 0000.0001) %MON dynstat_salt_del2            =   0.0000000000000E+00
(PID.TID 0000.0001) %MON trAdv_CFL_u_max              =   2.5692110894230E-02
(PID.TID 0000.0001) %MON trAdv_CFL_v_max              =   2.5982318474271E-02
(PID.TID 0000.0001) %MON trAdv_CFL_w_max              =   3.4354304239914E-09
(PID.TID 0000.0001) %MON advcfl_uvel_max              =   2.5693439937712E-02
(PID.TID 0000.0001) %MON advcfl_vvel_max              =   2.5983920053644E-02
(PID.TID 0000.0001) %MON advcfl_wvel_max              =   6.4071179151535E-09
(PID.TID 0000.0001) %MON advcfl_W_hf_max              =   0.0000000000000E+00
(PID.TID 0000.0001) %MON pe_b_mean                    =   9.4953014584492E-06
(PID.TID 0000.0001) %MON ke_max                       =   5.9079563553707E-03
(PID.TID 0000.0001) %MON ke_mean                      =   1.4435215682927E-03
(PID.TID 0000.0001) %MON ke_vol                       =   7.2529629296391E+15
(PID.TID 0000.0001) %MON vort_r_min                   =  -3.8719846203227E-06
(PID.TID 0000.0001) %MON vort_r_max                   =   2.9046071701941E-06
(PID.TID 0000.0001) %MON vort_a_mean                  =   1.0615000000000E-04
(PID.TID 0000.0001) %MON vort_a_sd                    =   3.6123536635797E-06
(PID.TID 0000.0001) %MON vort_p_mean                  =   1.1210870169429E-04
(PID.TID 0000.0001) %MON vort_p_sd                    =   2.1062850048564E-05
(PID.TID 0000.0001) %MON surfExpan_theta_mean         =   3.1466809680971E-20
(PID.TID 0000.0001) %MON surfExpan_salt_mean          =   4.7216976548186E-20
(PID.TID 0000.0001) // =======================================================
(PID.TID 0000.0001) // End MONITOR dynamic field statistics
(PID.TID 0000.0001) // =======================================================
 cg2d: Sum(rhs),rhsMax =   5.12457255849192E-04  1.21846922493284E-02
 cg2d: Sum(rhs),rhsMax =   5.12663602765091E-04  1.21853269582338E-02
 cg2d: Sum(rhs),rhsMax =   5.12870239640393E-04  1.21859615997285E-02
 cg2d: Sum(rhs),rhsMax =   5.13077244515919E-04  1.21865961689735E-02
 cg2d: Sum(rhs),rhsMax =   5.13284335679454E-04  1.21872306659479E-02
 cg2d: Sum(rhs),rhsMax =   5.13491912890790E-04  1.21878650932937E-02
 cg2d: Sum(rhs),rhsMax =   5.13699785452041E-04  1.21884994490090E-02
 cg2d: Sum(rhs),rhsMax =   5.13908038478419E-04  1.21891337276618E-02
 cg2d: Sum(rhs),rhsMax =   5.14116573863748E-04  1.21897679329619E-02
 cg2d: Sum(rhs),rhsMax =   5.14325449832031E-04  1.21904020593338E-02
 cg2d: Sum(rhs),rhsMax =   5.14534513680043E-04  1.21910361108219E-02
 cg2d: Sum(rhs),rhsMax =   5.14743941703755E-04  1.21916700815364E-02
 cg2d: Sum(rhs),rhsMax =   5.14953628068651E-04  1.21923039741990E-02
 cg2d: Sum(rhs),rhsMax =   5.15163676769221E-04  1.21929377871615E-02
 cg2d: Sum(rhs),rhsMax =   5.15373886510016E-04  1.21935715196570E-02
 cg2d: Sum(rhs),rhsMax =   5.15584507260809E-04  1.21942051714226E-02
 cg2d: Sum(rhs),rhsMax =   5.15795397945492E-04  1.21948387405015E-02
 cg2d: Sum(rhs),rhsMax =   5.16006635498308E-04  1.21954722226784E-02
 cg2d: Sum(rhs),rhsMax =   5.16218131219114E-04  1.21961056216930E-02
 cg2d: Sum(rhs),rhsMax =   5.16429948809885E-04  1.21967389339225E-02
 cg2d: Sum(rhs),rhsMax =   5.16641983834540E-04  1.21973721603653E-02
 cg2d: Sum(rhs),rhsMax =   5.16854362580546E-04  1.21980052985986E-02
 cg2d: Sum(rhs),rhsMax =   5.17066909103912E-04  1.21986383489207E-02
 cg2d: Sum(rhs),rhsMax =   5.17279798353830E-04  1.21992713086495E-02
 cg2d: Sum(rhs),rhsMax =   5.17492957193066E-04  1.21999041790404E-02
 cg2d: Sum(rhs),rhsMax =   5.17706436552525E-04  1.22005369557456E-02
 cg2d: Sum(rhs),rhsMax =   5.17920162207249E-04  1.22011696394733E-02
 cg2d: Sum(rhs),rhsMax =   5.18134180102211E-04  1.22018022322074E-02
 cg2d: Sum(rhs),rhsMax =   5.18348441027910E-04  1.22024347312783E-02
 cg2d: Sum(rhs),rhsMax =   5.18562983301052E-04  1.22030671316454E-02
 cg2d: Sum(rhs),rhsMax =   5.18777709905691E-04  1.22036994348899E-02
 cg2d: Sum(rhs),rhsMax =   5.18992786679742E-04  1.22043316436569E-02
 cg2d: Sum(rhs),rhsMax =   5.19208115312579E-04  1.22049637546934E-02
 cg2d: Sum(rhs),rhsMax =   5.19423721121624E-04  1.22055957640215E-02
 cg2d: Sum(rhs),rhsMax =   5.19639566088055E-04  1.22062276736344E-02
 cg2d: Sum(rhs),rhsMax =   5.19855688563706E-04  1.22068594817343E-02
 cg2d: Sum(rhs),rhsMax =   5.20071803340820E-04  1.22074911891618E-02
 cg2d: Sum(rhs),rhsMax =   5.20288349074938E-04  1.22081227895932E-02
 cg2d: Sum(rhs),rhsMax =   5.20505071734434E-04  1.22087542872210E-02
 cg2d: Sum(rhs),rhsMax =   5.20722112523244E-04  1.22093856792882E-02
 cg2d: Sum(rhs),rhsMax =   5.20939397898061E-04  1.22100169671969E-02
 cg2d: Sum(rhs),rhsMax =   5.21156921999737E-04  1.22106481463989E-02
 cg2d: Sum(rhs),rhsMax =   5.21374695066884E-04  1.22112792186576E-02
 cg2d: Sum(rhs),rhsMax =   5.21592573760001E-04  1.22119101791591E-02
 cg2d: Sum(rhs),rhsMax =   5.21810745248827E-04  1.22125410325811E-02
 cg2d: Sum(rhs),rhsMax =   5.22029027687604E-04  1.22131717723530E-02
 cg2d: Sum(rhs),rhsMax =   5.22247582629231E-04  1.22138024017610E-02
 cg2d: Sum(rhs),rhsMax =   5.22466370940328E-04  1.22144329172698E-02
 cg2d: Sum(rhs),rhsMax =   5.22685354598802E-04  1.22150633195955E-02
 cg2d: Sum(rhs),rhsMax =   5.22904526830955E-04  1.22156936056366E-02
 cg2d: Sum(rhs),rhsMax =   5.23123892978962E-04  1.22163237751835E-02
 cg2d: Sum(rhs),rhsMax =   5.23343388607687E-04  1.22169538257807E-02
 cg2d: Sum(rhs),rhsMax =   5.23563075089701E-04  1.22175837630402E-02
 cg2d: Sum(rhs),rhsMax =   5.23782858417416E-04  1.22182135803226E-02
 cg2d: Sum(rhs),rhsMax =   5.24002868958408E-04  1.22188432744708E-02
 cg2d: Sum(rhs),rhsMax =   5.24261968761036E-04  1.22194728676685E-02
 cg2d: Sum(rhs),rhsMax =   5.24521182200090E-04  1.22201023186935E-02
 cg2d: Sum(rhs),rhsMax =   5.24822688371972E-04  1.22207316590367E-02
 cg2d: Sum(rhs),rhsMax =   5.25124201802766E-04  1.22213608632585E-02
 cg2d: Sum(rhs),rhsMax =   5.25425915539368E-04  1.22219899437757E-02
 cg2d: Sum(rhs),rhsMax =   5.25727681067512E-04  1.22226188983866E-02
 cg2d: Sum(rhs),rhsMax =   5.26029484018508E-04  1.22232477250382E-02
 cg2d: Sum(rhs),rhsMax =   5.26331403467761E-04  1.22238764265074E-02
 cg2d: Sum(rhs),rhsMax =   5.26633243484998E-04  1.22245049999827E-02
 cg2d: Sum(rhs),rhsMax =   5.26935262027814E-04  1.22251334382898E-02
 cg2d: Sum(rhs),rhsMax =   5.27237248685881E-04  1.22257617472055E-02
 cg2d: Sum(rhs),rhsMax =   5.27539281064622E-04  1.22263899250864E-02
 cg2d: Sum(rhs),rhsMax =   5.27841395201949E-04  1.22270179719290E-02
 cg2d: Sum(rhs),rhsMax =   5.28143429794280E-04  1.22276458822300E-02
 cg2d: Sum(rhs),rhsMax =   5.28445439427190E-04  1.22282736599252E-02
 cg2d: Sum(rhs),rhsMax =   5.28747416920279E-04  1.22289012992712E-02
 cg2d: Sum(rhs),rhsMax =   5.29049275201476E-04  1.22295288041258E-02
(PID.TID 0000.0001)      cg2d_init_res =   3.32779384249860E-03
(PID.TID 0000.0001)      cg2d_iters(min,last) =      -1     369
(PID.TID 0000.0001)      cg2d_last_res =   9.73150768981817E-08
(PID.TID 0000.0001) // =======================================================
(PID.TID 0000.0001) // Begin MONITOR dynamic field statistics
(PID.TID 0000.0001) // =======================================================
(PID.TID 0000.0001) %MON time_tsnumber                =                 10224
(PID.TID 0000.0001) %MON time_secondsf                =   1.2268800000000E+07
(PID.TID 0000.0001) %MON dynstat_eta_max              =   1.0756395075928E-01
(PID.TID 0000.0001) %MON dynstat_eta_min              =  -2.5944957270243E-01
(PID.TID 0000.0001) %MON dynstat_eta_mean             =  -3.0808601094914E-08
(PID.TID 0000.0001) %MON dynstat_eta_sd               =   9.6671615218311E-02
(PID.TID 0000.0001) %MON dynstat_eta_del2             =   5.7062961533034E-07
(PID.TID 0000.0001) %MON dynstat_uvel_max             =   9.6448978447363E-02
(PID.TID 0000.0001) %MON dynstat_uvel_min             =  -1.0745411551461E-01
(PID.TID 0000.0001) %MON dynstat_uvel_mean            =   9.6063274897702E-08
(PID.TID 0000.0001) %MON dynstat_uvel_sd              =   3.9582650007708E-02
(PID.TID 0000.0001) %MON dynstat_uvel_del2            =   8.8902061771778E-07
(PID.TID 0000.0001) %MON dynstat_vvel_max             =   1.0873774755429E-01
(PID.TID 0000.0001) %MON dynstat_vvel_min             =  -8.9734208288480E-02
(PID.TID 0000.0001) %MON dynstat_vvel_mean            =  -2.3080891206825E-07
(PID.TID 0000.0001) %MON dynstat_vvel_sd              =   3.6816287768942E-02
(PID.TID 0000.0001) %MON dynstat_vvel_del2            =   1.1561040440296E-06
(PID.TID 0000.0001) %MON dynstat_wvel_max             =   1.2810212657787E-08
(PID.TID 0000.0001) %MON dynstat_wvel_min             =  -1.2385224823374E-08
(PID.TID 0000.0001) %MON dynstat_wvel_mean            =  -5.4358577074521E-21
(PID.TID 0000.0001) %MON dynstat_wvel_sd              =   5.7180872986654E-09
(PID.TID 0000.0001) %MON dynstat_wvel_del2            =   4.7084150421182E-14
(PID.TID 0000.0001) %MON dynstat_theta_max            =   2.0000000000000E+01
(PID.TID 0000.0001) %MON dynstat_theta_min            =   2.0000000000000E+01
(PID.TID 0000.0001) %MON dynstat_theta_mean           =   1.9999999999999E+01
(PID.TID 0000.0001) %MON dynstat_theta_sd             =   1.1972645097557E-12
(PID.TID 0000.0001) %MON dynstat_theta_del2           =   0.0000000000000E+00
(PID.TID 0000.0001) %MON dynstat_salt_max             =   3.0000000000000E+01
(PID.TID 0000.0001) %MON dynstat_salt_min             =   3.0000000000000E+01
(PID.TID 0000.0001) %MON dynstat_salt_mean            =   2.9999999999998E+01
(PID.TID 0000.0001) %MON dynstat_salt_sd              =   2.1529444893531E-12
(PID.TID 0000.0001) %MON dynstat_salt_del2            =   0.0000000000000E+00
(PID.TID 0000.0001) %MON trAdv_CFL_u_max              =   2.5787648139101E-02
(PID.TID 0000.0001) %MON trAdv_CFL_v_max              =   2.6095515051584E-02
(PID.TID 0000.0001) %MON trAdv_CFL_w_max              =   3.3021550515229E-09
(PID.TID 0000.0001) %MON advcfl_uvel_max              =   2.5788987723507E-02
(PID.TID 0000.0001) %MON advcfl_vvel_max              =   2.6097059413029E-02
(PID.TID 0000.0001) %MON advcfl_wvel_max              =   6.1489020757377E-09
(PID.TID 0000.0001) %MON advcfl_W_hf_max              =   0.0000000000000E+00
(PID.TID 0000.0001) %MON pe_b_mean                    =   9.5616254360814E-06
(PID.TID 0000.0001) %MON ke_max                       =   5.9611996429592E-03
(PID.TID 0000.0001) %MON ke_mean                      =   1.4545355894609E-03
(PID.TID 0000.0001) %MON ke_vol                       =   7.2529629296391E+15
(PID.TID 0000.0001) %MON vort_r_min                   =  -3.8870150262890E-06
(PID.TID 0000.0001) %MON vort_r_max                   =   2.9087117402271E-06
(PID.TID 0000.0001) %MON vort_a_mean                  =   1.0615000000000E-04
(PID.TID 0000.0001) %MON vort_a_sd                    =   3.6127410917673E-06
(PID.TID 0000.0001) %MON vort_p_mean                  =   1.1210870169429E-04
(PID.TID 0000.0001) %MON vort_p_sd                    =   2.1062856416040E-05
(PID.TID 0000.0001) %MON surfExpan_theta_mean         =  -1.0936663487940E-19
(PID.TID 0000.0001) %MON surfExpan_salt_mean          =  -1.6407769022757E-19
(PID.TID 0000.0001) // =======================================================
(PID.TID 0000.0001) // End MONITOR dynamic field statistics
(PID.TID 0000.0001) // =======================================================
 cg2d: Sum(rhs),rhsMax =   5.29351110133866E-04  1.22301561691551E-02
 cg2d: Sum(rhs),rhsMax =   5.29652642490542E-04  1.22307833965082E-02
 cg2d: Sum(rhs),rhsMax =   5.29954209315139E-04  1.22314104838470E-02
 cg2d: Sum(rhs),rhsMax =   5.30255612963592E-04  1.22320374324849E-02
 cg2d: Sum(rhs),rhsMax =   5.30556928432829E-04  1.22326642351517E-02
 cg2d: Sum(rhs),rhsMax =   5.30857886704953E-04  1.22332908976685E-02
 cg2d: Sum(rhs),rhsMax =   5.31158785657761E-04  1.22339174135271E-02
 cg2d: Sum(rhs),rhsMax =   5.31459436295007E-04  1.22345437879737E-02
 cg2d: Sum(rhs),rhsMax =   5.31759910315052E-04  1.22351700139776E-02
 cg2d: Sum(rhs),rhsMax =   5.32060119091330E-04  1.22357960970810E-02
 cg2d: Sum(rhs),rhsMax =   5.32360061962795E-04  1.22364220274210E-02
 cg2d: Sum(rhs),rhsMax =   5.32659518849170E-04  1.22370478123624E-02
 cg2d: Sum(rhs),rhsMax =   5.32958749585295E-04  1.22376734458122E-02
 cg2d: Sum(rhs),rhsMax =   5.33257571124077E-04  1.22382989314837E-02
 cg2d: Sum(rhs),rhsMax =   5.33556057115516E-04  1.22389242596942E-02
 cg2d: Sum(rhs),rhsMax =   5.33854117364108E-04  1.22395494394323E-02
 cg2d: Sum(rhs),rhsMax =   5.34151742903839E-04  1.22401744628052E-02
 cg2d: Sum(rhs),rhsMax =   5.34448813001600E-04  1.22407993348962E-02
 cg2d: Sum(rhs),rhsMax =   5.34745400967492E-04  1.22414240462696E-02
 cg2d: Sum(rhs),rhsMax =   5.35041362099330E-04  1.22420486033108E-02
 cg2d: Sum(rhs),rhsMax =   5.35336780339599E-04  1.22426730030248E-02
 cg2d: Sum(rhs),rhsMax =   5.35631597207844E-04  1.22432972472828E-02
 cg2d: Sum(rhs),rhsMax =   5.35925770754939E-04  1.22439213257705E-02
 cg2d: Sum(rhs),rhsMax =   5.36219225174184E-04  1.22445452476653E-02
 cg2d: Sum(rhs),rhsMax =   5.37313887790283E-04  1.22451689949058E-02
 cg2d: Sum(rhs),rhsMax =   5.38397418344118E-04  1.22457925890840E-02
 cg2d: Sum(rhs),rhsMax =   5.39469557849954E-04  1.22464160200881E-02
 cg2d: Sum(rhs),rhsMax =   5.40529801482295E-04  1.22470392885697E-02
 cg2d: Sum(rhs),rhsMax =   5.41578020948882E-04  1.22476623899802E-02
 cg2d: Sum(rhs),rhsMax =   5.42613868334506E-04  1.22482853252118E-02
 cg2d: Sum(rhs),rhsMax =   5.43637085245810E-04  1.22489080925292E-02
 cg2d: Sum(rhs),rhsMax =   5.44684106933112E-04  1.22495306809488E-02
 cg2d: Sum(rhs),rhsMax =   5.45717275993030E-04  1.22501531088694E-02
 cg2d: Sum(rhs),rhsMax =   5.46736626934108E-04  1.22507753666132E-02
 cg2d: Sum(rhs),rhsMax =   5.47741624866328E-04  1.22513974530758E-02
 cg2d: Sum(rhs),rhsMax =   5.49004742291814E-04  1.22520193697469E-02
 cg2d: Sum(rhs),rhsMax =   5.50247061983146E-04  1.22526411124764E-02
 cg2d: Sum(rhs),rhsMax =   5.51468316870130E-04  1.22532626760830E-02
 cg2d: Sum(rhs),rhsMax =   5.52668116876256E-04  1.22538840652745E-02
 cg2d: Sum(rhs),rhsMax =   5.53878440832307E-04  1.22545052748774E-02
 cg2d: Sum(rhs),rhsMax =   5.55066205857180E-04  1.22551263096365E-02
 cg2d: Sum(rhs),rhsMax =   5.56230936506310E-04  1.22557471649718E-02
 cg2d: Sum(rhs),rhsMax =   5.57372537311793E-04  1.22563678402316E-02
 cg2d: Sum(rhs),rhsMax =   5.58490681233205E-04  1.22569883354824E-02
 cg2d: Sum(rhs),rhsMax =   5.59585192015733E-04  1.22576086493162E-02
 cg2d: Sum(rhs),rhsMax =   5.60685145757087E-04  1.22582287745964E-02
 cg2d: Sum(rhs),rhsMax =   5.61760206158099E-04  1.22588487239985E-02
 cg2d: Sum(rhs),rhsMax =   5.62810240519081E-04  1.22594684829326E-02
 cg2d: Sum(rhs),rhsMax =   5.63834689979373E-04  1.22600880617965E-02
 cg2d: Sum(rhs),rhsMax =   5.64833758819900E-04  1.22607074482970E-02
 cg2d: Sum(rhs),rhsMax =   5.65834709282181E-04  1.22613266499274E-02
 cg2d: Sum(rhs),rhsMax =   5.66808913991610E-04  1.22619456625913E-02
 cg2d: Sum(rhs),rhsMax =   5.67756372739406E-04  1.22625644847715E-02
 cg2d: Sum(rhs),rhsMax =   5.68676756917451E-04  1.22631831157704E-02
 cg2d: Sum(rhs),rhsMax =   5.69597818547180E-04  1.22638015580880E-02
 cg2d: Sum(rhs),rhsMax =   5.70490780756236E-04  1.22644198045602E-02
 cg2d: Sum(rhs),rhsMax =   5.71355711765665E-04  1.22650378584882E-02
 cg2d: Sum(rhs),rhsMax =   5.72192197966295E-04  1.22656557158206E-02
 cg2d: Sum(rhs),rhsMax =   5.73000502321279E-04  1.22662733797192E-02
 cg2d: Sum(rhs),rhsMax =   5.73780332942338E-04  1.22668908430885E-02
 cg2d: Sum(rhs),rhsMax =   5.74557955632202E-04  1.22675081119888E-02
 cg2d: Sum(rhs),rhsMax =   5.75306449183509E-04  1.22681251810238E-02
 cg2d: Sum(rhs),rhsMax =   5.76025910885443E-04  1.22687420498978E-02
 cg2d: Sum(rhs),rhsMax =   5.76716349402042E-04  1.22693587185880E-02
 cg2d: Sum(rhs),rhsMax =   5.77377893768126E-04  1.22699751847536E-02
 cg2d: Sum(rhs),rhsMax =   5.78010656741321E-04  1.22705914488438E-02
 cg2d: Sum(rhs),rhsMax =   5.78638767063940E-04  1.22712075123264E-02
 cg2d: Sum(rhs),rhsMax =   5.79237800075795E-04  1.22718233658053E-02
 cg2d: Sum(rhs),rhsMax =   5.79808167555828E-04  1.22724390157346E-02
 cg2d: Sum(rhs),rhsMax =   5.80374582928483E-04  1.22730544542626E-02
 cg2d: Sum(rhs),rhsMax =   5.80912381690927E-04  1.22736696886461E-02
 cg2d: Sum(rhs),rhsMax =   5.81421864014796E-04  1.22742847132282E-02
(PID.TID 0000.0001)      cg2d_init_res =   3.31031638642430E-03
(PID.TID 0000.0001)      cg2d_iters(min,last) =      -1     339
(PID.TID 0000.0001)      cg2d_last_res =   9.70771299469216E-08
(PID.TID 0000.0001) // =======================================================
(PID.TID 0000.0001) // Begin MONITOR dynamic field statistics
(PID.TID 0000.0001) // =======================================================
(PID.TID 0000.0001) %MON time_tsnumber                =                 10296
(PID.TID 0000.0001) %MON time_secondsf                =   1.2355200000000E+07
(PID.TID 0000.0001) %MON dynstat_eta_max              =   1.0767374086819E-01
(PID.TID 0000.0001) %MON dynstat_eta_min              =  -2.6041654254816E-01
(PID.TID 0000.0001) %MON dynstat_eta_mean             =  -3.3991079232976E-08
(PID.TID 0000.0001) %MON dynstat_eta_sd               =   9.7010799134200E-02
(PID.TID 0000.0001) %MON dynstat_eta_del2             =   5.7298301453607E-07
(PID.TID 0000.0001) %MON dynstat_uvel_max             =   9.6962195280613E-02
(PID.TID 0000.0001) %MON dynstat_uvel_min             =  -1.0785338719824E-01
(PID.TID 0000.0001) %MON dynstat_uvel_mean            =   6.3001972455031E-08
(PID.TID 0000.0001) %MON dynstat_uvel_sd              =   3.9775372331339E-02
(PID.TID 0000.0001) %MON dynstat_uvel_del2            =   8.9384758822961E-07
(PID.TID 0000.0001) %MON dynstat_vvel_max             =   1.0919421604506E-01
(PID.TID 0000.0001) %MON dynstat_vvel_min             =  -9.0157401431628E-02
(PID.TID 0000.0001) %MON dynstat_vvel_mean            =  -2.4180820771434E-07
(PID.TID 0000.0001) %MON dynstat_vvel_sd              =   3.6910821095713E-02
(PID.TID 0000.0001) %MON dynstat_vvel_del2            =   1.1587594634457E-06
(PID.TID 0000.0001) %MON dynstat_wvel_max             =   1.3124718570907E-08
(PID.TID 0000.0001) %MON dynstat_wvel_min             =  -1.2836859505624E-08
(PID.TID 0000.0001) %MON dynstat_wvel_mean            =  -9.7380675758080E-21
(PID.TID 0000.0001) %MON dynstat_wvel_sd              =   5.6798732211483E-09
(PID.TID 0000.0001) %MON dynstat_wvel_del2            =   4.6974472148512E-14
(PID.TID 0000.0001) %MON dynstat_theta_max            =   2.0000000000000E+01
(PID.TID 0000.0001) %MON dynstat_theta_min            =   2.0000000000000E+01
(PID.TID 0000.0001) %MON dynstat_theta_mean           =   1.9999999999999E+01
(PID.TID 0000.0001) %MON dynstat_theta_sd             =   1.1972645097557E-12
(PID.TID 0000.0001) %MON dynstat_theta_del2           =   0.0000000000000E+00
(PID.TID 0000.0001) %MON dynstat_salt_max             =   3.0000000000000E+01
(PID.TID 0000.0001) %MON dynstat_salt_min             =   3.0000000000000E+01
(PID.TID 0000.0001) %MON dynstat_salt_mean            =   2.9999999999998E+01
(PID.TID 0000.0001) %MON dynstat_salt_sd              =   2.1529444893531E-12
(PID.TID 0000.0001) %MON dynstat_salt_del2            =   0.0000000000000E+00
(PID.TID 0000.0001) %MON trAdv_CFL_u_max              =   2.5883491612623E-02
(PID.TID 0000.0001) %MON trAdv_CFL_v_max              =   2.6205109994937E-02
(PID.TID 0000.0001) %MON trAdv_CFL_w_max              =   3.3479412298322E-09
(PID.TID 0000.0001) %MON advcfl_uvel_max              =   2.5884812927577E-02
(PID.TID 0000.0001) %MON advcfl_vvel_max              =   2.6206611850813E-02
(PID.TID 0000.0001) %MON advcfl_wvel_max              =   6.2998649140354E-09
(PID.TID 0000.0001) %MON advcfl_W_hf_max              =   0.0000000000000E+00
(PID.TID 0000.0001) %MON pe_b_mean                    =   9.6288393548572E-06
(PID.TID 0000.0001) %MON ke_max                       =   6.0126852956706E-03
(PID.TID 0000.0001) %MON ke_mean                      =   1.4656173463661E-03
(PID.TID 0000.0001) %MON ke_vol                       =   7.2529629296391E+15
(PID.TID 0000.0001) %MON vort_r_min                   =  -3.9019053544778E-06
(PID.TID 0000.0001) %MON vort_r_max                   =   2.9163425796382E-06
(PID.TID 0000.0001) %MON vort_a_mean                  =   1.0615000000000E-04
(PID.TID 0000.0001) %MON vort_a_sd                    =   3.6131386666679E-06
(PID.TID 0000.0001) %MON vort_p_mean                  =   1.1210870169429E-04
(PID.TID 0000.0001) %MON vort_p_sd                    =   2.1062863055162E-05
(PID.TID 0000.0001) %MON surfExpan_theta_mean         =  -1.9538121636509E-19
(PID.TID 0000.0001) %MON surfExpan_salt_mean          =  -2.9302774732128E-19
(PID.TID 0000.0001) // =======================================================
(PID.TID 0000.0001) // End MONITOR dynamic field statistics
(PID.TID 0000.0001) // =======================================================
 cg2d: Sum(rhs),rhsMax =   5.81903352237356E-04  1.22748995282954E-02
 cg2d: Sum(rhs),rhsMax =   5.82357496926979E-04  1.22755141332133E-02
 cg2d: Sum(rhs),rhsMax =   5.82784615469083E-04  1.22761285251311E-02
 cg2d: Sum(rhs),rhsMax =   5.83185549834846E-04  1.22767427065061E-02
 cg2d: Sum(rhs),rhsMax =   5.83584231373335E-04  1.22773566739942E-02
 cg2d: Sum(rhs),rhsMax =   5.83957477297377E-04  1.22779704255759E-02
 cg2d: Sum(rhs),rhsMax =   5.84306099239167E-04  1.22785839608226E-02
 cg2d: Sum(rhs),rhsMax =   5.84630837749652E-04  1.22791972807435E-02
 cg2d: Sum(rhs),rhsMax =   5.84932636318439E-04  1.22798103819870E-02
 cg2d: Sum(rhs),rhsMax =   5.85212330809590E-04  1.22804232638983E-02
 cg2d: Sum(rhs),rhsMax =   5.85470983872355E-04  1.22810359267462E-02
 cg2d: Sum(rhs),rhsMax =   5.85709572952382E-04  1.22816483689499E-02
 cg2d: Sum(rhs),rhsMax =   5.85929284070775E-04  1.22822605873888E-02
 cg2d: Sum(rhs),rhsMax =   5.86131203834437E-04  1.22828725860000E-02
 cg2d: Sum(rhs),rhsMax =   5.86316552706228E-04  1.22834843578556E-02
 cg2d: Sum(rhs),rhsMax =   5.86486584345213E-04  1.22840959086132E-02
 cg2d: Sum(rhs),rhsMax =   5.86642581064946E-04  1.22847072301619E-02
 cg2d: Sum(rhs),rhsMax =   5.86806508385621E-04  1.22853183166209E-02
 cg2d: Sum(rhs),rhsMax =   5.86958901298257E-04  1.22859291848840E-02
 cg2d: Sum(rhs),rhsMax =   5.87101289938231E-04  1.22865398247160E-02
 cg2d: Sum(rhs),rhsMax =   5.87234974445381E-04  1.22871502336169E-02
 cg2d: Sum(rhs),rhsMax =   5.87361693366177E-04  1.22877604139658E-02
 cg2d: Sum(rhs),rhsMax =   5.87482797537234E-04  1.22883703624959E-02
 cg2d: Sum(rhs),rhsMax =   5.87600026639420E-04  1.22889800783388E-02
 cg2d: Sum(rhs),rhsMax =   5.87714890281111E-04  1.22895895586561E-02
 cg2d: Sum(rhs),rhsMax =   5.87829049411832E-04  1.22901988056715E-02
 cg2d: Sum(rhs),rhsMax =   5.87944106885159E-04  1.22908078156096E-02
 cg2d: Sum(rhs),rhsMax =   5.88061691061927E-04  1.22914165902511E-02
 cg2d: Sum(rhs),rhsMax =   5.88183397279339E-04  1.22920251261275E-02
 cg2d: Sum(rhs),rhsMax =   5.88310891102813E-04  1.22926334242358E-02
 cg2d: Sum(rhs),rhsMax =   5.88445762599844E-04  1.22932414819565E-02
 cg2d: Sum(rhs),rhsMax =   5.88589660537472E-04  1.22938492991023E-02
 cg2d: Sum(rhs),rhsMax =   5.88744136567544E-04  1.22944568749756E-02
 cg2d: Sum(rhs),rhsMax =   5.88910792354147E-04  1.22950642067835E-02
 cg2d: Sum(rhs),rhsMax =   5.89091010703752E-04  1.22956712945801E-02
 cg2d: Sum(rhs),rhsMax =   5.89286608809352E-04  1.22962781400401E-02
 cg2d: Sum(rhs),rhsMax =   5.89477148850300E-04  1.22968847485459E-02
 cg2d: Sum(rhs),rhsMax =   5.89685454001922E-04  1.22974910969742E-02
 cg2d: Sum(rhs),rhsMax =   5.89913016790627E-04  1.22980972050629E-02
 cg2d: Sum(rhs),rhsMax =   5.90160939741496E-04  1.22987030592601E-02
 cg2d: Sum(rhs),rhsMax =   5.90430671127868E-04  1.22993086680493E-02
 cg2d: Sum(rhs),rhsMax =   5.90723282604578E-04  1.22999140224460E-02
 cg2d: Sum(rhs),rhsMax =   5.91040057736546E-04  1.23005191304409E-02
 cg2d: Sum(rhs),rhsMax =   5.91382043685137E-04  1.23011239808539E-02
 cg2d: Sum(rhs),rhsMax =   5.91750224577234E-04  1.23017285826403E-02
 cg2d: Sum(rhs),rhsMax =   5.92145639621271E-04  1.23023329248078E-02
 cg2d: Sum(rhs),rhsMax =   5.92569107266900E-04  1.23029370161490E-02
 cg2d: Sum(rhs),rhsMax =   5.93021482051596E-04  1.23035408483254E-02
 cg2d: Sum(rhs),rhsMax =   5.93503772723382E-04  1.23041444249223E-02
 cg2d: Sum(rhs),rhsMax =   5.93990057514728E-04  1.23047477409966E-02
 cg2d: Sum(rhs),rhsMax =   5.94506784583665E-04  1.23053507975466E-02
 cg2d: Sum(rhs),rhsMax =   5.95054594204140E-04  1.23059535960818E-02
 cg2d: Sum(rhs),rhsMax =   5.95633856793018E-04  1.23065561307569E-02
 cg2d: Sum(rhs),rhsMax =   5.96245157763936E-04  1.23071584059159E-02
 cg2d: Sum(rhs),rhsMax =   5.96888778617801E-04  1.23077604142080E-02
 cg2d: Sum(rhs),rhsMax =   5.97565150809378E-04  1.23083621641407E-02
 cg2d: Sum(rhs),rhsMax =   5.98245733640592E-04  1.23089636509030E-02
 cg2d: Sum(rhs),rhsMax =   5.98958584625409E-04  1.23095648671504E-02
 cg2d: Sum(rhs),rhsMax =   5.99704138950016E-04  1.23101658169772E-02
 cg2d: Sum(rhs),rhsMax =   6.00453956647219E-04  1.23107664938744E-02
 cg2d: Sum(rhs),rhsMax =   6.01235589357986E-04  1.23113669036615E-02
 cg2d: Sum(rhs),rhsMax =   6.02049202053284E-04  1.23119670446176E-02
 cg2d: Sum(rhs),rhsMax =   6.02894636422142E-04  1.23125669142677E-02
 cg2d: Sum(rhs),rhsMax =   6.03771877249724E-04  1.23131665131458E-02
 cg2d: Sum(rhs),rhsMax =   6.04650174630114E-04  1.23137658374162E-02
 cg2d: Sum(rhs),rhsMax =   6.05558983433644E-04  1.23143648880467E-02
 cg2d: Sum(rhs),rhsMax =   6.06498377338435E-04  1.23149636641332E-02
 cg2d: Sum(rhs),rhsMax =   6.07467904845420E-04  1.23155621639705E-02
 cg2d: Sum(rhs),rhsMax =   6.08467426351345E-04  1.23161603878909E-02
 cg2d: Sum(rhs),rhsMax =   6.09496596825793E-04  1.23167583325537E-02
 cg2d: Sum(rhs),rhsMax =   6.10554976762909E-04  1.23173559981990E-02
 cg2d: Sum(rhs),rhsMax =   6.11609008417906E-04  1.23179533870691E-02
(PID.TID 0000.0001)      cg2d_init_res =   3.29633546377480E-03
(PID.TID 0000.0001)      cg2d_iters(min,last) =      -1     343
(PID.TID 0000.0001)      cg2d_last_res =   9.72812285875773E-08
(PID.TID 0000.0001) // =======================================================
(PID.TID 0000.0001) // Begin MONITOR dynamic field statistics
(PID.TID 0000.0001) // =======================================================
(PID.TID 0000.0001) %MON time_tsnumber                =                 10368
(PID.TID 0000.0001) %MON time_secondsf                =   1.2441600000000E+07
(PID.TID 0000.0001) %MON dynstat_eta_max              =   1.0783868444563E-01
(PID.TID 0000.0001) %MON dynstat_eta_min              =  -2.6140592915635E-01
(PID.TID 0000.0001) %MON dynstat_eta_mean             =  -3.5916752606288E-08
(PID.TID 0000.0001) %MON dynstat_eta_sd               =   9.7352911382550E-02
(PID.TID 0000.0001) %MON dynstat_eta_del2             =   5.7537553519857E-07
(PID.TID 0000.0001) %MON dynstat_uvel_max             =   9.7472938040574E-02
(PID.TID 0000.0001) %MON dynstat_uvel_min             =  -1.0824612361043E-01
(PID.TID 0000.0001) %MON dynstat_uvel_mean            =   2.8348561334710E-08
(PID.TID 0000.0001) %MON dynstat_uvel_sd              =   3.9970872479827E-02
(PID.TID 0000.0001) %MON dynstat_uvel_del2            =   8.9854622012499E-07
(PID.TID 0000.0001) %MON dynstat_vvel_max             =   1.0964022938656E-01
(PID.TID 0000.0001) %MON dynstat_vvel_min             =  -9.0546758217867E-02
(PID.TID 0000.0001) %MON dynstat_vvel_mean            =  -2.4704963426182E-07
(PID.TID 0000.0001) %MON dynstat_vvel_sd              =   3.7003167801645E-02
(PID.TID 0000.0001) %MON dynstat_vvel_del2            =   1.1622528876968E-06
(PID.TID 0000.0001) %MON dynstat_wvel_max             =   1.3767240998568E-08
(PID.TID 0000.0001) %MON dynstat_wvel_min             =  -1.3240840178914E-08
(PID.TID 0000.0001) %MON dynstat_wvel_mean            =   1.6086019063380E-20
(PID.TID 0000.0001) %MON dynstat_wvel_sd              =   5.6409189274739E-09
(PID.TID 0000.0001) %MON dynstat_wvel_del2            =   4.7096763695938E-14
(PID.TID 0000.0001) %MON dynstat_theta_max            =   2.0000000000000E+01
(PID.TID 0000.0001) %MON dynstat_theta_min            =   2.0000000000000E+01
(PID.TID 0000.0001) %MON dynstat_theta_mean           =   1.9999999999999E+01
(PID.TID 0000.0001) %MON dynstat_theta_sd             =   1.1972645097557E-12
(PID.TID 0000.0001) %MON dynstat_theta_del2           =   0.0000000000000E+00
(PID.TID 0000.0001) %MON dynstat_salt_max             =   3.0000000000000E+01
(PID.TID 0000.0001) %MON dynstat_salt_min             =   3.0000000000000E+01
(PID.TID 0000.0001) %MON dynstat_salt_mean            =   2.9999999999998E+01
(PID.TID 0000.0001) %MON dynstat_salt_sd              =   2.1529444893531E-12
(PID.TID 0000.0001) %MON dynstat_salt_del2            =   0.0000000000000E+00
(PID.TID 0000.0001) %MON trAdv_CFL_u_max              =   2.5977773515616E-02
(PID.TID 0000.0001) %MON trAdv_CFL_v_max              =   2.6312180584225E-02
(PID.TID 0000.0001) %MON trAdv_CFL_w_max              =   3.5153813972736E-09
(PID.TID 0000.0001) %MON advcfl_uvel_max              =   2.5979069666503E-02
(PID.TID 0000.0001) %MON advcfl_vvel_max              =   2.6313655052775E-02
(PID.TID 0000.0001) %MON advcfl_wvel_max              =   6.6082756793126E-09
(PID.TID 0000.0001) %MON advcfl_W_hf_max              =   0.0000000000000E+00
(PID.TID 0000.0001) %MON pe_b_mean                    =   9.6968720351684E-06
(PID.TID 0000.0001) %MON ke_max                       =   6.0628272004999E-03
(PID.TID 0000.0001) %MON ke_mean                      =   1.4767749526805E-03
(PID.TID 0000.0001) %MON ke_vol                       =   7.2529629296391E+15
(PID.TID 0000.0001) %MON vort_r_min                   =  -3.9165288253657E-06
(PID.TID 0000.0001) %MON vort_r_max                   =   2.9276457119162E-06
(PID.TID 0000.0001) %MON vort_a_mean                  =   1.0615000000000E-04
(PID.TID 0000.0001) %MON vort_a_sd                    =   3.6135458805407E-06
(PID.TID 0000.0001) %MON vort_p_mean                  =   1.1210870169429E-04
(PID.TID 0000.0001) %MON vort_p_sd                    =   2.1062873156980E-05
(PID.TID 0000.0001) %MON surfExpan_theta_mean         =   3.2153327334310E-19
(PID.TID 0000.0001) %MON surfExpan_salt_mean          =   4.8236911384314E-19
(PID.TID 0000.0001) // =======================================================
(PID.TID 0000.0001) // End MONITOR dynamic field statistics
(PID.TID 0000.0001) // =======================================================
 cg2d: Sum(rhs),rhsMax =   6.12690715557900E-04  1.23185504954690E-02
 cg2d: Sum(rhs),rhsMax =   6.13800069684799E-04  1.23191473196150E-02
 cg2d: Sum(rhs),rhsMax =   6.14936295077074E-04  1.23197438592940E-02
 cg2d: Sum(rhs),rhsMax =   6.16066159244522E-04  1.23203401170560E-02
 cg2d: Sum(rhs),rhsMax =   6.17221513594344E-04  1.23209360907424E-02
 cg2d: Sum(rhs),rhsMax =   6.18402083360475E-04  1.23215317802076E-02
 cg2d: Sum(rhs),rhsMax =   6.19607213292378E-04  1.23221271808968E-02
 cg2d: Sum(rhs),rhsMax =   6.20836748640188E-04  1.23227222966176E-02
 cg2d: Sum(rhs),rhsMax =   6.22089963545748E-04  1.23233171215534E-02
 cg2d: Sum(rhs),rhsMax =   6.23330924629689E-04  1.23239116589484E-02
 cg2d: Sum(rhs),rhsMax =   6.24594091837998E-04  1.23245059063059E-02
 cg2d: Sum(rhs),rhsMax =   6.25879161180148E-04  1.23250998618777E-02
 cg2d: Sum(rhs),rhsMax =   6.27185512777231E-04  1.23256935254449E-02
 cg2d: Sum(rhs),rhsMax =   6.28512967730628E-04  1.23262868952052E-02
 cg2d: Sum(rhs),rhsMax =   6.29860684176869E-04  1.23268799701317E-02
 cg2d: Sum(rhs),rhsMax =   6.31228746195573E-04  1.23274727519303E-02
 cg2d: Sum(rhs),rhsMax =   6.32616513843061E-04  1.23280652369164E-02
 cg2d: Sum(rhs),rhsMax =   6.34023630276179E-04  1.23286574264366E-02
 cg2d: Sum(rhs),rhsMax =   6.35408804455666E-04  1.23292493127512E-02
 cg2d: Sum(rhs),rhsMax =   6.36811658881797E-04  1.23298409054048E-02
 cg2d: Sum(rhs),rhsMax =   6.38232048986415E-04  1.23304321959278E-02
 cg2d: Sum(rhs),rhsMax =   6.39669216525992E-04  1.23310231872596E-02
 cg2d: Sum(rhs),rhsMax =   6.41123248935931E-04  1.23316138751063E-02
 cg2d: Sum(rhs),rhsMax =   6.42593439966106E-04  1.23322042621269E-02
 cg2d: Sum(rhs),rhsMax =   6.43738203901076E-04  1.23327943387404E-02
 cg2d: Sum(rhs),rhsMax =   6.44893246831124E-04  1.23333841121985E-02
 cg2d: Sum(rhs),rhsMax =   6.46058698309804E-04  1.23339735862107E-02
 cg2d: Sum(rhs),rhsMax =   6.47233903003310E-04  1.23345627516441E-02
 cg2d: Sum(rhs),rhsMax =   6.48418991710821E-04  1.23351516089154E-02
 cg2d: Sum(rhs),rhsMax =   6.49613344843487E-04  1.23357401558671E-02
 cg2d: Sum(rhs),rhsMax =   6.50817015757857E-04  1.23363283979223E-02
 cg2d: Sum(rhs),rhsMax =   6.52029604517126E-04  1.23369163273974E-02
 cg2d: Sum(rhs),rhsMax =   6.53250917937449E-04  1.23375039467037E-02
 cg2d: Sum(rhs),rhsMax =   6.54480583532017E-04  1.23380912511496E-02
 cg2d: Sum(rhs),rhsMax =   6.55718576951212E-04  1.23386782480746E-02
 cg2d: Sum(rhs),rhsMax =   6.56964444626719E-04  1.23392649310568E-02
 cg2d: Sum(rhs),rhsMax =   6.58171924940625E-04  1.23398513015689E-02
 cg2d: Sum(rhs),rhsMax =   6.59386426410192E-04  1.23404373527227E-02
 cg2d: Sum(rhs),rhsMax =   6.60607946443377E-04  1.23410230827425E-02
 cg2d: Sum(rhs),rhsMax =   6.61836107626828E-04  1.23416085000557E-02
 cg2d: Sum(rhs),rhsMax =   6.63070912784013E-04  1.23421935960712E-02
 cg2d: Sum(rhs),rhsMax =   6.64312059210441E-04  1.23427783736377E-02
 cg2d: Sum(rhs),rhsMax =   6.65559507086633E-04  1.23433628268162E-02
 cg2d: Sum(rhs),rhsMax =   6.66812930067297E-04  1.23439469640613E-02
 cg2d: Sum(rhs),rhsMax =   6.68071789646354E-04  1.23445307787414E-02
 cg2d: Sum(rhs),rhsMax =   6.69336738777816E-04  1.23451142684367E-02
 cg2d: Sum(rhs),rhsMax =   6.70607018869718E-04  1.23456974312897E-02
 cg2d: Sum(rhs),rhsMax =   6.71882984568228E-04  1.23462802704645E-02
 cg2d: Sum(rhs),rhsMax =   6.73164027778976E-04  1.23468627849568E-02
 cg2d: Sum(rhs),rhsMax =   6.74450210786935E-04  1.23474449709805E-02
 cg2d: Sum(rhs),rhsMax =   6.75741442826481E-04  1.23480268322371E-02
 cg2d: Sum(rhs),rhsMax =   6.77037458181392E-04  1.23486083642540E-02
 cg2d: Sum(rhs),rhsMax =   6.78338196143475E-04  1.23491895624326E-02
 cg2d: Sum(rhs),rhsMax =   6.79643590430353E-04  1.23497704315667E-02
 cg2d: Sum(rhs),rhsMax =   6.80953333330563E-04  1.23503509695073E-02
 cg2d: Sum(rhs),rhsMax =   6.82267460551248E-04  1.23509311763315E-02
 cg2d: Sum(rhs),rhsMax =   6.82975779740571E-04  1.23515110581425E-02
 cg2d: Sum(rhs),rhsMax =   6.83685286104114E-04  1.23520905978984E-02
 cg2d: Sum(rhs),rhsMax =   6.84396231862132E-04  1.23526698011650E-02
 cg2d: Sum(rhs),rhsMax =   6.85107992602874E-04  1.23532486705549E-02
 cg2d: Sum(rhs),rhsMax =   6.85821223037118E-04  1.23538272009436E-02
 cg2d: Sum(rhs),rhsMax =   6.86535208605525E-04  1.23544053937359E-02
 cg2d: Sum(rhs),rhsMax =   6.87250360658115E-04  1.23549832452227E-02
 cg2d: Sum(rhs),rhsMax =   6.87966391405359E-04  1.23555607587210E-02
 cg2d: Sum(rhs),rhsMax =   6.88683410977567E-04  1.23561379316808E-02
 cg2d: Sum(rhs),rhsMax =   6.89086353928219E-04  1.23567147574476E-02
 cg2d: Sum(rhs),rhsMax =   6.89489412385350E-04  1.23572912466826E-02
 cg2d: Sum(rhs),rhsMax =   6.89892818050106E-04  1.23578673927049E-02
 cg2d: Sum(rhs),rhsMax =   6.90296216790176E-04  1.23584431935934E-02
 cg2d: Sum(rhs),rhsMax =   6.90700011939134E-04  1.23590186527869E-02
 cg2d: Sum(rhs),rhsMax =   6.91103917428148E-04  1.23595937625616E-02
 cg2d: Sum(rhs),rhsMax =   6.91507963418854E-04  1.23601685278618E-02
(PID.TID 0000.0001)      cg2d_init_res =   3.28571470151638E-03
(PID.TID 0000.0001)      cg2d_iters(min,last) =      -1     368
(PID.TID 0000.0001)      cg2d_last_res =   9.83822805613471E-08
(PID.TID 0000.0001) // =======================================================
(PID.TID 0000.0001) // Begin MONITOR dynamic field statistics
(PID.TID 0000.0001) // =======================================================
(PID.TID 0000.0001) %MON time_tsnumber                =                 10440
(PID.TID 0000.0001) %MON time_secondsf                =   1.2528000000000E+07
(PID.TID 0000.0001) %MON dynstat_eta_max              =   1.0806603431184E-01
(PID.TID 0000.0001) %MON dynstat_eta_min              =  -2.6241930714688E-01
(PID.TID 0000.0001) %MON dynstat_eta_mean             =  -4.0699746412045E-08
(PID.TID 0000.0001) %MON dynstat_eta_sd               =   9.7697343621635E-02
(PID.TID 0000.0001) %MON dynstat_eta_del2             =   5.7780477539544E-07
(PID.TID 0000.0001) %MON dynstat_uvel_max             =   9.7976477940648E-02
(PID.TID 0000.0001) %MON dynstat_uvel_min             =  -1.0863229720005E-01
(PID.TID 0000.0001) %MON dynstat_uvel_mean            =  -6.4802942710723E-09
(PID.TID 0000.0001) %MON dynstat_uvel_sd              =   4.0167068201327E-02
(PID.TID 0000.0001) %MON dynstat_uvel_del2            =   9.0302755103440E-07
(PID.TID 0000.0001) %MON dynstat_vvel_max             =   1.1008030973837E-01
(PID.TID 0000.0001) %MON dynstat_vvel_min             =  -9.0911123218809E-02
(PID.TID 0000.0001) %MON dynstat_vvel_mean            =  -2.4640313886077E-07
(PID.TID 0000.0001) %MON dynstat_vvel_sd              =   3.7095642362803E-02
(PID.TID 0000.0001) %MON dynstat_vvel_del2            =   1.1665932804282E-06
(PID.TID 0000.0001) %MON dynstat_wvel_max             =   1.4224336850457E-08
(PID.TID 0000.0001) %MON dynstat_wvel_min             =  -1.3585022711195E-08
(PID.TID 0000.0001) %MON dynstat_wvel_mean            =  -6.7286054178168E-21
(PID.TID 0000.0001) %MON dynstat_wvel_sd              =   5.6006218587036E-09
(PID.TID 0000.0001) %MON dynstat_wvel_del2            =   4.6992007914996E-14
(PID.TID 0000.0001) %MON dynstat_theta_max            =   2.0000000000000E+01
(PID.TID 0000.0001) %MON dynstat_theta_min            =   2.0000000000000E+01
(PID.TID 0000.0001) %MON dynstat_theta_mean           =   1.9999999999999E+01
(PID.TID 0000.0001) %MON dynstat_theta_sd             =   1.1972645097557E-12
(PID.TID 0000.0001) %MON dynstat_theta_del2           =   0.0000000000000E+00
(PID.TID 0000.0001) %MON dynstat_salt_max             =   3.0000000000000E+01
(PID.TID 0000.0001) %MON dynstat_salt_min             =   3.0000000000000E+01
(PID.TID 0000.0001) %MON dynstat_salt_mean            =   2.9999999999998E+01
(PID.TID 0000.0001) %MON dynstat_salt_sd              =   2.1529444893531E-12
(PID.TID 0000.0001) %MON dynstat_salt_del2            =   0.0000000000000E+00
(PID.TID 0000.0001) %MON trAdv_CFL_u_max              =   2.6070464043157E-02
(PID.TID 0000.0001) %MON trAdv_CFL_v_max              =   2.6417812320432E-02
(PID.TID 0000.0001) %MON trAdv_CFL_w_max              =   3.6352074879695E-09
(PID.TID 0000.0001) %MON advcfl_uvel_max              =   2.6071751328013E-02
(PID.TID 0000.0001) %MON advcfl_vvel_max              =   2.6419274337209E-02
(PID.TID 0000.0001) %MON advcfl_wvel_max              =   6.8276816882193E-09
(PID.TID 0000.0001) %MON advcfl_W_hf_max              =   0.0000000000000E+00
(PID.TID 0000.0001) %MON pe_b_mean                    =   9.7656080096647E-06
(PID.TID 0000.0001) %MON ke_max                       =   6.1120649442332E-03
(PID.TID 0000.0001) %MON ke_mean                      =   1.4880116314226E-03
(PID.TID 0000.0001) %MON ke_vol                       =   7.2529629296391E+15
(PID.TID 0000.0001) %MON vort_r_min                   =  -3.9307573762664E-06
(PID.TID 0000.0001) %MON vort_r_max                   =   2.9426082489750E-06
(PID.TID 0000.0001) %MON vort_a_mean                  =   1.0615000000000E-04
(PID.TID 0000.0001) %MON vort_a_sd                    =   3.6139617929752E-06
(PID.TID 0000.0001) %MON vort_p_mean                  =   1.1210870169429E-04
(PID.TID 0000.0001) %MON vort_p_sd                    =   2.1062889705487E-05
(PID.TID 0000.0001) %MON surfExpan_theta_mean         =  -1.3499519904405E-19
(PID.TID 0000.0001) %MON surfExpan_salt_mean          =  -2.0254607870399E-19
(PID.TID 0000.0001) // =======================================================
(PID.TID 0000.0001) // End MONITOR dynamic field statistics
(PID.TID 0000.0001) // =======================================================
 cg2d: Sum(rhs),rhsMax =   6.91912182246266E-04  1.23607429421931E-02
 cg2d: Sum(rhs),rhsMax =   6.92316267152089E-04  1.23613170084001E-02
 cg2d: Sum(rhs),rhsMax =   6.92720615008609E-04  1.23618907266070E-02
 cg2d: Sum(rhs),rhsMax =   6.93125065593068E-04  1.23624640927109E-02
 cg2d: Sum(rhs),rhsMax =   6.93529742484343E-04  1.23630371099002E-02
 cg2d: Sum(rhs),rhsMax =   6.93934345096108E-04  1.23636097734540E-02
 cg2d: Sum(rhs),rhsMax =   6.94339082062810E-04  1.23641820832426E-02
 cg2d: Sum(rhs),rhsMax =   6.94743872396890E-04  1.23647540362893E-02
 cg2d: Sum(rhs),rhsMax =   6.95148789414086E-04  1.23653256385717E-02
 cg2d: Sum(rhs),rhsMax =   6.95553682936608E-04  1.23658968827362E-02
 cg2d: Sum(rhs),rhsMax =   6.95958623315890E-04  1.23664677722812E-02
 cg2d: Sum(rhs),rhsMax =   6.96363431238916E-04  1.23670383030979E-02
 cg2d: Sum(rhs),rhsMax =   6.96768077372142E-04  1.23676084755147E-02
 cg2d: Sum(rhs),rhsMax =   6.97172992706973E-04  1.23681782898926E-02
 cg2d: Sum(rhs),rhsMax =   6.97577837857438E-04  1.23687477424380E-02
 cg2d: Sum(rhs),rhsMax =   6.97982686459474E-04  1.23693168339133E-02
 cg2d: Sum(rhs),rhsMax =   6.98387404691787E-04  1.23698855625880E-02
 cg2d: Sum(rhs),rhsMax =   6.98792155961702E-04  1.23704539276356E-02
 cg2d: Sum(rhs),rhsMax =   6.99196734251527E-04  1.23710219328124E-02
 cg2d: Sum(rhs),rhsMax =   6.99601352302417E-04  1.23715895722647E-02
 cg2d: Sum(rhs),rhsMax =   7.00005730760794E-04  1.23721568419355E-02
 cg2d: Sum(rhs),rhsMax =   7.00410160963127E-04  1.23727237493515E-02
 cg2d: Sum(rhs),rhsMax =   7.00814471559662E-04  1.23732902896432E-02
 cg2d: Sum(rhs),rhsMax =   7.01218740300238E-04  1.23738564615033E-02
 cg2d: Sum(rhs),rhsMax =   7.01622866841766E-04  1.23744222630263E-02
 cg2d: Sum(rhs),rhsMax =   7.02026833990121E-04  1.23749876953220E-02
 cg2d: Sum(rhs),rhsMax =   7.02430699020751E-04  1.23755527577636E-02
 cg2d: Sum(rhs),rhsMax =   7.02834427575303E-04  1.23761174502131E-02
 cg2d: Sum(rhs),rhsMax =   7.03238042220493E-04  1.23766817662143E-02
 cg2d: Sum(rhs),rhsMax =   7.03641475882238E-04  1.23772457104410E-02
 cg2d: Sum(rhs),rhsMax =   7.04044752570998E-04  1.23778092810230E-02
 cg2d: Sum(rhs),rhsMax =   7.04447925149633E-04  1.23783724771924E-02
 cg2d: Sum(rhs),rhsMax =   7.04796759488599E-04  1.23789352997349E-02
 cg2d: Sum(rhs),rhsMax =   7.05145295850336E-04  1.23794977434709E-02
 cg2d: Sum(rhs),rhsMax =   7.05493809168871E-04  1.23800598103526E-02
 cg2d: Sum(rhs),rhsMax =   7.05841962640518E-04  1.23806214978874E-02
 cg2d: Sum(rhs),rhsMax =   7.06190053834136E-04  1.23811828054346E-02
 cg2d: Sum(rhs),rhsMax =   7.06537782285707E-04  1.23817437309837E-02
 cg2d: Sum(rhs),rhsMax =   7.06885411661768E-04  1.23823042793213E-02
 cg2d: Sum(rhs),rhsMax =   7.07232783303808E-04  1.23828644444238E-02
 cg2d: Sum(rhs),rhsMax =   7.07580009989380E-04  1.23834242284678E-02
 cg2d: Sum(rhs),rhsMax =   7.07927019288474E-04  1.23839836272162E-02
 cg2d: Sum(rhs),rhsMax =   7.08273838743528E-04  1.23845426421976E-02
 cg2d: Sum(rhs),rhsMax =   7.08620308790752E-04  1.23851012679017E-02
 cg2d: Sum(rhs),rhsMax =   7.08966629294504E-04  1.23856595160133E-02
 cg2d: Sum(rhs),rhsMax =   7.09312662586984E-04  1.23862173748513E-02
 cg2d: Sum(rhs),rhsMax =   7.09658546445601E-04  1.23867748450206E-02
 cg2d: Sum(rhs),rhsMax =   7.10004188072865E-04  1.23873319255633E-02
 cg2d: Sum(rhs),rhsMax =   7.10349615021222E-04  1.23878886193215E-02
 cg2d: Sum(rhs),rhsMax =   7.10694754777665E-04  1.23884449205491E-02
 cg2d: Sum(rhs),rhsMax =   7.11039674172667E-04  1.23890008323213E-02
 cg2d: Sum(rhs),rhsMax =   7.11384145868072E-04  1.23895563506478E-02
 cg2d: Sum(rhs),rhsMax =   7.11728499053666E-04  1.23901114799147E-02
 cg2d: Sum(rhs),rhsMax =   7.12072590675239E-04  1.23906662129041E-02
 cg2d: Sum(rhs),rhsMax =   7.12416452783320E-04  1.23912205530322E-02
 cg2d: Sum(rhs),rhsMax =   7.12760076835526E-04  1.23917744957677E-02
 cg2d: Sum(rhs),rhsMax =   7.13103397916236E-04  1.23923280450081E-02
 cg2d: Sum(rhs),rhsMax =   7.13446455884717E-04  1.23928811955189E-02
 cg2d: Sum(rhs),rhsMax =   7.13789224388481E-04  1.23934339509133E-02
 cg2d: Sum(rhs),rhsMax =   7.14131711674011E-04  1.23939863056543E-02
 cg2d: Sum(rhs),rhsMax =   7.14473913293988E-04  1.23945382637229E-02
 cg2d: Sum(rhs),rhsMax =   7.14815840214716E-04  1.23950898193184E-02
 cg2d: Sum(rhs),rhsMax =   7.15157471815666E-04  1.23956409766372E-02
 cg2d: Sum(rhs),rhsMax =   7.15498828132531E-04  1.23961917303245E-02
 cg2d: Sum(rhs),rhsMax =   7.15839729658026E-04  1.23967420833461E-02
 cg2d: Sum(rhs),rhsMax =   7.16180430858577E-04  1.23972920324923E-02
 cg2d: Sum(rhs),rhsMax =   7.16520827145821E-04  1.23978415802322E-02
 cg2d: Sum(rhs),rhsMax =   7.16860980847453E-04  1.23983907188719E-02
 cg2d: Sum(rhs),rhsMax =   7.17200672597387E-04  1.23989394515785E-02
 cg2d: Sum(rhs),rhsMax =   7.17540176339116E-04  1.23994877813874E-02
 cg2d: Sum(rhs),rhsMax =   7.17879368043956E-04  1.24000357060144E-02
 cg2d: Sum(rhs),rhsMax =   7.18218259286085E-04  1.24005832200586E-02
(PID.TID 0000.0001)      cg2d_init_res =   3.27817000536274E-03
(PID.TID 0000.0001)      cg2d_iters(min,last) =      -1     369
(PID.TID 0000.0001)      cg2d_last_res =   9.27552102632630E-08
(PID.TID 0000.0001) // =======================================================
(PID.TID 0000.0001) // Begin MONITOR dynamic field statistics
(PID.TID 0000.0001) // =======================================================
(PID.TID 0000.0001) %MON time_tsnumber                =                 10512
(PID.TID 0000.0001) %MON time_secondsf                =   1.2614400000000E+07
(PID.TID 0000.0001) %MON dynstat_eta_max              =   1.0836006182113E-01
(PID.TID 0000.0001) %MON dynstat_eta_min              =  -2.6345701686060E-01
(PID.TID 0000.0001) %MON dynstat_eta_mean             =  -4.2405144947693E-08
(PID.TID 0000.0001) %MON dynstat_eta_sd               =   9.8043301276293E-02
(PID.TID 0000.0001) %MON dynstat_eta_del2             =   5.8026616667221E-07
(PID.TID 0000.0001) %MON dynstat_uvel_max             =   9.8475907813995E-02
(PID.TID 0000.0001) %MON dynstat_uvel_min             =  -1.0901296048735E-01
(PID.TID 0000.0001) %MON dynstat_uvel_mean            =  -4.0090671797586E-08
(PID.TID 0000.0001) %MON dynstat_uvel_sd              =   4.0361829700934E-02
(PID.TID 0000.0001) %MON dynstat_uvel_del2            =   9.0721237747594E-07
(PID.TID 0000.0001) %MON dynstat_vvel_max             =   1.1051883857513E-01
(PID.TID 0000.0001) %MON dynstat_vvel_min             =  -9.1244310795069E-02
(PID.TID 0000.0001) %MON dynstat_vvel_mean            =  -2.3997636800473E-07
(PID.TID 0000.0001) %MON dynstat_vvel_sd              =   3.7190498341465E-02
(PID.TID 0000.0001) %MON dynstat_vvel_del2            =   1.1717508005686E-06
(PID.TID 0000.0001) %MON dynstat_wvel_max             =   1.4483878939645E-08
(PID.TID 0000.0001) %MON dynstat_wvel_min             =  -1.3869105488993E-08
(PID.TID 0000.0001) %MON dynstat_wvel_mean            =   1.0369339794082E-20
(PID.TID 0000.0001) %MON dynstat_wvel_sd              =   5.5579460863999E-09
(PID.TID 0000.0001) %MON dynstat_wvel_del2            =   4.6890073516976E-14
(PID.TID 0000.0001) %MON dynstat_theta_max            =   2.0000000000000E+01
(PID.TID 0000.0001) %MON dynstat_theta_min            =   2.0000000000000E+01
(PID.TID 0000.0001) %MON dynstat_theta_mean           =   1.9999999999999E+01
(PID.TID 0000.0001) %MON dynstat_theta_sd             =   1.1972645097557E-12
(PID.TID 0000.0001) %MON dynstat_theta_del2           =   0.0000000000000E+00
(PID.TID 0000.0001) %MON dynstat_salt_max             =   3.0000000000000E+01
(PID.TID 0000.0001) %MON dynstat_salt_min             =   3.0000000000000E+01
(PID.TID 0000.0001) %MON dynstat_salt_mean            =   2.9999999999998E+01
(PID.TID 0000.0001) %MON dynstat_salt_sd              =   2.1529444893531E-12
(PID.TID 0000.0001) %MON dynstat_salt_del2            =   0.0000000000000E+00
(PID.TID 0000.0001) %MON trAdv_CFL_u_max              =   2.6161860458912E-02
(PID.TID 0000.0001) %MON trAdv_CFL_v_max              =   2.6523057497068E-02
(PID.TID 0000.0001) %MON trAdv_CFL_w_max              =   3.7067988953410E-09
(PID.TID 0000.0001) %MON advcfl_uvel_max              =   2.6163110516963E-02
(PID.TID 0000.0001) %MON advcfl_vvel_max              =   2.6524521258031E-02
(PID.TID 0000.0001) %MON advcfl_wvel_max              =   6.9522618910298E-09
(PID.TID 0000.0001) %MON advcfl_W_hf_max              =   0.0000000000000E+00
(PID.TID 0000.0001) %MON pe_b_mean                    =   9.8348927726944E-06
(PID.TID 0000.0001) %MON ke_max                       =   6.1608476768295E-03
(PID.TID 0000.0001) %MON ke_mean                      =   1.4993256790484E-03
(PID.TID 0000.0001) %MON ke_vol                       =   7.2529629296391E+15
(PID.TID 0000.0001) %MON vort_r_min                   =  -3.9444665470130E-06
(PID.TID 0000.0001) %MON vort_r_max                   =   2.9610581881520E-06
(PID.TID 0000.0001) %MON vort_a_mean                  =   1.0615000000000E-04
(PID.TID 0000.0001) %MON vort_a_sd                    =   3.6143850691111E-06
(PID.TID 0000.0001) %MON vort_p_mean                  =   1.1210870169429E-04
(PID.TID 0000.0001) %MON vort_p_sd                    =   2.1062915357110E-05
(PID.TID 0000.0001) %MON surfExpan_theta_mean         =   2.0707438672096E-19
(PID.TID 0000.0001) %MON surfExpan_salt_mean          =   3.1068821856622E-19
(PID.TID 0000.0001) // =======================================================
(PID.TID 0000.0001) // End MONITOR dynamic field statistics
(PID.TID 0000.0001) // =======================================================
 cg2d: Sum(rhs),rhsMax =   7.18556846355379E-04  1.24011303276871E-02
 cg2d: Sum(rhs),rhsMax =   7.18895141352805E-04  1.24016770208690E-02
 cg2d: Sum(rhs),rhsMax =   7.19233055948940E-04  1.24022233065951E-02
 cg2d: Sum(rhs),rhsMax =   7.19570697825571E-04  1.24027691797649E-02
 cg2d: Sum(rhs),rhsMax =   7.19907875636949E-04  1.24033146439975E-02
 cg2d: Sum(rhs),rhsMax =   7.20244825003366E-04  1.24038596901695E-02
 cg2d: Sum(rhs),rhsMax =   7.20581462839725E-04  1.24044043257136E-02
 cg2d: Sum(rhs),rhsMax =   7.20917796087813E-04  1.24049485475373E-02
 cg2d: Sum(rhs),rhsMax =   7.21253796002675E-04  1.24054923543791E-02
 cg2d: Sum(rhs),rhsMax =   7.21589492268904E-04  1.24060357467325E-02
 cg2d: Sum(rhs),rhsMax =   7.21924724267995E-04  1.24065787232041E-02
 cg2d: Sum(rhs),rhsMax =   7.22259716631066E-04  1.24071212802243E-02
 cg2d: Sum(rhs),rhsMax =   7.22594312814698E-04  1.24076634192577E-02
 cg2d: Sum(rhs),rhsMax =   7.22928618670765E-04  1.24082051406431E-02
 cg2d: Sum(rhs),rhsMax =   7.23262598911546E-04  1.24087464442240E-02
 cg2d: Sum(rhs),rhsMax =   7.23596263061441E-04  1.24092873247334E-02
 cg2d: Sum(rhs),rhsMax =   7.23929555998749E-04  1.24098277858588E-02
 cg2d: Sum(rhs),rhsMax =   7.24262550036159E-04  1.24103678212260E-02
 cg2d: Sum(rhs),rhsMax =   7.24595137711682E-04  1.24109074356920E-02
 cg2d: Sum(rhs),rhsMax =   7.24927437543998E-04  1.24114466270580E-02
 cg2d: Sum(rhs),rhsMax =   7.25259345969891E-04  1.24119853954474E-02
 cg2d: Sum(rhs),rhsMax =   7.25590938233019E-04  1.24125237363210E-02
 cg2d: Sum(rhs),rhsMax =   7.25922164841214E-04  1.24130616524431E-02
 cg2d: Sum(rhs),rhsMax =   7.26253067138041E-04  1.24135991429947E-02
 cg2d: Sum(rhs),rhsMax =   7.26583582036588E-04  1.24141362068460E-02
 cg2d: Sum(rhs),rhsMax =   7.26913816144930E-04  1.24146728412137E-02
 cg2d: Sum(rhs),rhsMax =   7.27243520249847E-04  1.24152090457219E-02
 cg2d: Sum(rhs),rhsMax =   7.27572983545822E-04  1.24157448243150E-02
 cg2d: Sum(rhs),rhsMax =   7.27902085943206E-04  1.24162801736538E-02
 cg2d: Sum(rhs),rhsMax =   7.28230911578847E-04  1.24168150888057E-02
 cg2d: Sum(rhs),rhsMax =   7.28559367735682E-04  1.24173495743703E-02
 cg2d: Sum(rhs),rhsMax =   7.28887510643922E-04  1.24178836253921E-02
 cg2d: Sum(rhs),rhsMax =   7.29215197351718E-04  1.24184172457371E-02
 cg2d: Sum(rhs),rhsMax =   7.29542596798265E-04  1.24189504274251E-02
 cg2d: Sum(rhs),rhsMax =   7.29869546183577E-04  1.24194831741885E-02
 cg2d: Sum(rhs),rhsMax =   7.30196203510234E-04  1.24200154892738E-02
 cg2d: Sum(rhs),rhsMax =   7.30522523162828E-04  1.24205473679585E-02
 cg2d: Sum(rhs),rhsMax =   7.30848514000102E-04  1.24210788097652E-02
 cg2d: Sum(rhs),rhsMax =   7.31174119044484E-04  1.24216098141008E-02
 cg2d: Sum(rhs),rhsMax =   7.31499381978921E-04  1.24221403810245E-02
 cg2d: Sum(rhs),rhsMax =   7.31824210906541E-04  1.24226705082387E-02
 cg2d: Sum(rhs),rhsMax =   7.32148761441278E-04  1.24232001949110E-02
 cg2d: Sum(rhs),rhsMax =   7.32472898540304E-04  1.24237294416050E-02
 cg2d: Sum(rhs),rhsMax =   7.32796722652211E-04  1.24242582484075E-02
 cg2d: Sum(rhs),rhsMax =   7.33120209592864E-04  1.24247866136950E-02
 cg2d: Sum(rhs),rhsMax =   7.33443345331463E-04  1.24253145358447E-02
 cg2d: Sum(rhs),rhsMax =   7.33766000029246E-04  1.24258420169396E-02
 cg2d: Sum(rhs),rhsMax =   7.34088403417234E-04  1.24263690491016E-02
 cg2d: Sum(rhs),rhsMax =   7.34410392217938E-04  1.24268956369864E-02
 cg2d: Sum(rhs),rhsMax =   7.34732047614619E-04  1.24274217809873E-02
 cg2d: Sum(rhs),rhsMax =   7.35053355197090E-04  1.24279474788810E-02
 cg2d: Sum(rhs),rhsMax =   7.35374342679668E-04  1.24284727305731E-02
 cg2d: Sum(rhs),rhsMax =   7.35694910434260E-04  1.24289975347110E-02
 cg2d: Sum(rhs),rhsMax =   7.36015153613056E-04  1.24295218897226E-02
 cg2d: Sum(rhs),rhsMax =   7.36335014166447E-04  1.24300457954433E-02
 cg2d: Sum(rhs),rhsMax =   7.36654548317037E-04  1.24305692533545E-02
 cg2d: Sum(rhs),rhsMax =   7.36973655895810E-04  1.24310922601505E-02
 cg2d: Sum(rhs),rhsMax =   7.37292445526803E-04  1.24316148166568E-02
 cg2d: Sum(rhs),rhsMax =   7.37610889343298E-04  1.24321369219282E-02
 cg2d: Sum(rhs),rhsMax =   7.37929003868229E-04  1.24326585746772E-02
 cg2d: Sum(rhs),rhsMax =   7.38246732829401E-04  1.24331797754776E-02
 cg2d: Sum(rhs),rhsMax =   7.38564128504298E-04  1.24337005197934E-02
 cg2d: Sum(rhs),rhsMax =   7.38881032965471E-04  1.24342208108842E-02
 cg2d: Sum(rhs),rhsMax =   7.39197683221482E-04  1.24347406466223E-02
 cg2d: Sum(rhs),rhsMax =   7.39513947984181E-04  1.24352600280522E-02
 cg2d: Sum(rhs),rhsMax =   7.39829891357013E-04  1.24357789515711E-02
 cg2d: Sum(rhs),rhsMax =   7.40145463727662E-04  1.24362974197235E-02
 cg2d: Sum(rhs),rhsMax =   7.40460731316160E-04  1.24368154269922E-02
 cg2d: Sum(rhs),rhsMax =   7.40775479117842E-04  1.24373329766202E-02
 cg2d: Sum(rhs),rhsMax =   7.41089990649412E-04  1.24378500669115E-02
 cg2d: Sum(rhs),rhsMax =   7.41404121196686E-04  1.24383666984239E-02
 cg2d: Sum(rhs),rhsMax =   7.41717927143119E-04  1.24388828696602E-02
(PID.TID 0000.0001)      cg2d_init_res =   3.27316956718951E-03
(PID.TID 0000.0001)      cg2d_iters(min,last) =      -1     369
(PID.TID 0000.0001)      cg2d_last_res =   9.59257547761319E-08
(PID.TID 0000.0001) // =======================================================
(PID.TID 0000.0001) // Begin MONITOR dynamic field statistics
(PID.TID 0000.0001) // =======================================================
(PID.TID 0000.0001) %MON time_tsnumber                =                 10584
(PID.TID 0000.0001) %MON time_secondsf                =   1.2700800000000E+07
(PID.TID 0000.0001) %MON dynstat_eta_max              =   1.0872176289832E-01
(PID.TID 0000.0001) %MON dynstat_eta_min              =  -2.6451820369253E-01
(PID.TID 0000.0001) %MON dynstat_eta_mean             =  -4.3925611799953E-08
(PID.TID 0000.0001) %MON dynstat_eta_sd               =   9.8389839872746E-02
(PID.TID 0000.0001) %MON dynstat_eta_del2             =   5.8275315916366E-07
(PID.TID 0000.0001) %MON dynstat_uvel_max             =   9.8969573376650E-02
(PID.TID 0000.0001) %MON dynstat_uvel_min             =  -1.0938165218800E-01
(PID.TID 0000.0001) %MON dynstat_uvel_mean            =  -7.1169746905148E-08
(PID.TID 0000.0001) %MON dynstat_uvel_sd              =   4.0553075152712E-02
(PID.TID 0000.0001) %MON dynstat_uvel_del2            =   9.1103664684714E-07
(PID.TID 0000.0001) %MON dynstat_vvel_max             =   1.1095989745264E-01
(PID.TID 0000.0001) %MON dynstat_vvel_min             =  -9.1557569994185E-02
(PID.TID 0000.0001) %MON dynstat_vvel_mean            =  -2.2810636322914E-07
(PID.TID 0000.0001) %MON dynstat_vvel_sd              =   3.7289830267454E-02
(PID.TID 0000.0001) %MON dynstat_vvel_del2            =   1.1776567113447E-06
(PID.TID 0000.0001) %MON dynstat_wvel_max             =   1.4551709494554E-08
(PID.TID 0000.0001) %MON dynstat_wvel_min             =  -1.4091835310683E-08
(PID.TID 0000.0001) %MON dynstat_wvel_mean            =  -1.5714778199844E-20
(PID.TID 0000.0001) %MON dynstat_wvel_sd              =   5.5116039458692E-09
(PID.TID 0000.0001) %MON dynstat_wvel_del2            =   4.6982242495695E-14
(PID.TID 0000.0001) %MON dynstat_theta_max            =   2.0000000000000E+01
(PID.TID 0000.0001) %MON dynstat_theta_min            =   2.0000000000000E+01
(PID.TID 0000.0001) %MON dynstat_theta_mean           =   1.9999999999999E+01
(PID.TID 0000.0001) %MON dynstat_theta_sd             =   1.1972645097557E-12
(PID.TID 0000.0001) %MON dynstat_theta_del2           =   0.0000000000000E+00
(PID.TID 0000.0001) %MON dynstat_salt_max             =   3.0000000000000E+01
(PID.TID 0000.0001) %MON dynstat_salt_min             =   3.0000000000000E+01
(PID.TID 0000.0001) %MON dynstat_salt_mean            =   2.9999999999998E+01
(PID.TID 0000.0001) %MON dynstat_salt_sd              =   2.1529444893531E-12
(PID.TID 0000.0001) %MON dynstat_salt_del2            =   0.0000000000000E+00
(PID.TID 0000.0001) %MON trAdv_CFL_u_max              =   2.6250388827629E-02
(PID.TID 0000.0001) %MON trAdv_CFL_v_max              =   2.6628896930289E-02
(PID.TID 0000.0001) %MON trAdv_CFL_w_max              =   3.7298860231793E-09
(PID.TID 0000.0001) %MON advcfl_uvel_max              =   2.6251596525121E-02
(PID.TID 0000.0001) %MON advcfl_vvel_max              =   2.6630375388633E-02
(PID.TID 0000.0001) %MON advcfl_wvel_max              =   6.9848205573857E-09
(PID.TID 0000.0001) %MON advcfl_W_hf_max              =   0.0000000000000E+00
(PID.TID 0000.0001) %MON pe_b_mean                    =   9.9045394096530E-06
(PID.TID 0000.0001) %MON ke_max                       =   6.2096182323990E-03
(PID.TID 0000.0001) %MON ke_mean                      =   1.5107106402856E-03
(PID.TID 0000.0001) %MON ke_vol                       =   7.2529629296391E+15
(PID.TID 0000.0001) %MON vort_r_min                   =  -3.9575401422415E-06
(PID.TID 0000.0001) %MON vort_r_max                   =   2.9826710447555E-06
(PID.TID 0000.0001) %MON vort_a_mean                  =   1.0615000000000E-04
(PID.TID 0000.0001) %MON vort_a_sd                    =   3.6148140339198E-06
(PID.TID 0000.0001) %MON vort_p_mean                  =   1.1210870169429E-04
(PID.TID 0000.0001) %MON vort_p_sd                    =   2.1062952336360E-05
(PID.TID 0000.0001) %MON surfExpan_theta_mean         =  -3.1481468765575E-19
(PID.TID 0000.0001) %MON surfExpan_salt_mean          =  -4.7200277486563E-19
(PID.TID 0000.0001) // =======================================================
(PID.TID 0000.0001) // End MONITOR dynamic field statistics
(PID.TID 0000.0001) // =======================================================
 cg2d: Sum(rhs),rhsMax =   7.42031414965915E-04  1.24393985801677E-02
 cg2d: Sum(rhs),rhsMax =   7.42344515047802E-04  1.24399138281984E-02
 cg2d: Sum(rhs),rhsMax =   7.42657278849042E-04  1.24404286137052E-02
 cg2d: Sum(rhs),rhsMax =   7.42969708399502E-04  1.24409429371169E-02
 cg2d: Sum(rhs),rhsMax =   7.43281676144982E-04  1.24414567943050E-02
 cg2d: Sum(rhs),rhsMax =   7.43593382169849E-04  1.24419701921406E-02
 cg2d: Sum(rhs),rhsMax =   7.43904590578805E-04  1.24424831270940E-02
 cg2d: Sum(rhs),rhsMax =   7.44215559856841E-04  1.24429955889916E-02
 cg2d: Sum(rhs),rhsMax =   7.44526144003771E-04  1.24435075857701E-02
 cg2d: Sum(rhs),rhsMax =   7.44836403301849E-04  1.24440191165488E-02
 cg2d: Sum(rhs),rhsMax =   7.45146412365130E-04  1.24445301813263E-02
 cg2d: Sum(rhs),rhsMax =   7.45456000245233E-04  1.24450407768153E-02
 cg2d: Sum(rhs),rhsMax =   7.45765268326681E-04  1.24455509040903E-02
 cg2d: Sum(rhs),rhsMax =   7.46074160338237E-04  1.24460605612772E-02
 cg2d: Sum(rhs),rhsMax =   7.46382720359099E-04  1.24465697488921E-02
 cg2d: Sum(rhs),rhsMax =   7.46690892141830E-04  1.24470784651557E-02
 cg2d: Sum(rhs),rhsMax =   7.46998751811728E-04  1.24475867110196E-02
 cg2d: Sum(rhs),rhsMax =   7.47306039546610E-04  1.24480944834074E-02
 cg2d: Sum(rhs),rhsMax =   7.47613161551435E-04  1.24486017859692E-02
 cg2d: Sum(rhs),rhsMax =   7.47919879718419E-04  1.24491086149183E-02
 cg2d: Sum(rhs),rhsMax =   7.48226368798486E-04  1.24496149678379E-02
 cg2d: Sum(rhs),rhsMax =   7.48532313798745E-04  1.24501208424773E-02
 cg2d: Sum(rhs),rhsMax =   7.48838091051949E-04  1.24506262487973E-02
 cg2d: Sum(rhs),rhsMax =   7.49143477045832E-04  1.24511311786283E-02
 cg2d: Sum(rhs),rhsMax =   7.49448560934418E-04  1.24516356323866E-02
 cg2d: Sum(rhs),rhsMax =   7.49753314433433E-04  1.24521396079659E-02
 cg2d: Sum(rhs),rhsMax =   7.50057711624766E-04  1.24526431060378E-02
 cg2d: Sum(rhs),rhsMax =   7.50361793665220E-04  1.24531461251189E-02
 cg2d: Sum(rhs),rhsMax =   7.50665504595124E-04  1.24536486661747E-02
 cg2d: Sum(rhs),rhsMax =   7.50968851015063E-04  1.24541507271747E-02
 cg2d: Sum(rhs),rhsMax =   7.51271880164156E-04  1.24546523097583E-02
 cg2d: Sum(rhs),rhsMax =   7.51574282908779E-04  1.24551534134900E-02
 cg2d: Sum(rhs),rhsMax =   7.51876555979043E-04  1.24556540321658E-02
 cg2d: Sum(rhs),rhsMax =   7.52178508374741E-04  1.24561541679465E-02
 cg2d: Sum(rhs),rhsMax =   7.52480172169435E-04  1.24566538242996E-02
 cg2d: Sum(rhs),rhsMax =   7.52781518189395E-04  1.24571529970567E-02
 cg2d: Sum(rhs),rhsMax =   7.53082492849295E-04  1.24576516871841E-02
 cg2d: Sum(rhs),rhsMax =   7.53383168282376E-04  1.24581498939233E-02
 cg2d: Sum(rhs),rhsMax =   7.53683392990888E-04  1.24586476160953E-02
 cg2d: Sum(rhs),rhsMax =   7.53983364352643E-04  1.24591448520974E-02
 cg2d: Sum(rhs),rhsMax =   7.54282963819587E-04  1.24596416021126E-02
 cg2d: Sum(rhs),rhsMax =   7.54582255223641E-04  1.24601378680402E-02
 cg2d: Sum(rhs),rhsMax =   7.54881221690366E-04  1.24606336486706E-02
 cg2d: Sum(rhs),rhsMax =   7.55179861274314E-04  1.24611289374905E-02
 cg2d: Sum(rhs),rhsMax =   7.55478094024797E-04  1.24616237400072E-02
 cg2d: Sum(rhs),rhsMax =   7.55776055250068E-04  1.24621180510319E-02
 cg2d: Sum(rhs),rhsMax =   7.56073635870845E-04  1.24626118743998E-02
 cg2d: Sum(rhs),rhsMax =   7.56370931892300E-04  1.24631052088439E-02
 cg2d: Sum(rhs),rhsMax =   7.56667894373083E-04  1.24635980532700E-02
 cg2d: Sum(rhs),rhsMax =   7.56964564970729E-04  1.24640904068430E-02
 cg2d: Sum(rhs),rhsMax =   7.57260694444664E-04  1.24645822680814E-02
 cg2d: Sum(rhs),rhsMax =   7.57556641855553E-04  1.24650736374359E-02
 cg2d: Sum(rhs),rhsMax =   7.57852237044847E-04  1.24655645154767E-02
 cg2d: Sum(rhs),rhsMax =   7.58147501197114E-04  1.24660549009576E-02
 cg2d: Sum(rhs),rhsMax =   7.58442496626035E-04  1.24665447933133E-02
 cg2d: Sum(rhs),rhsMax =   7.58737152952445E-04  1.24670341912695E-02
 cg2d: Sum(rhs),rhsMax =   7.59031505860321E-04  1.24675230930032E-02
 cg2d: Sum(rhs),rhsMax =   7.59325445984692E-04  1.24680115002649E-02
 cg2d: Sum(rhs),rhsMax =   7.59619120219095E-04  1.24684994096545E-02
 cg2d: Sum(rhs),rhsMax =   7.59912409551399E-04  1.24689868204245E-02
 cg2d: Sum(rhs),rhsMax =   7.60205418170056E-04  1.24694737420542E-02
 cg2d: Sum(rhs),rhsMax =   7.60498094287528E-04  1.24699601647602E-02
 cg2d: Sum(rhs),rhsMax =   7.60790441371346E-04  1.24704460874871E-02
 cg2d: Sum(rhs),rhsMax =   7.61082483797020E-04  1.24709315121270E-02
 cg2d: Sum(rhs),rhsMax =   7.61374190200779E-04  1.24714164372617E-02
 cg2d: Sum(rhs),rhsMax =   7.61665535159911E-04  1.24719008623472E-02
 cg2d: Sum(rhs),rhsMax =   7.61956594068053E-04  1.24723847889272E-02
 cg2d: Sum(rhs),rhsMax =   7.62247321348710E-04  1.24728682148521E-02
 cg2d: Sum(rhs),rhsMax =   7.62537725524691E-04  1.24733511407482E-02
 cg2d: Sum(rhs),rhsMax =   7.62827822250213E-04  1.24738335654749E-02
 cg2d: Sum(rhs),rhsMax =   7.63075626894049E-04  1.24743154742409E-02
 cg2d: Sum(rhs),rhsMax =   7.63285077365216E-04  1.24747968786300E-02
(PID.TID 0000.0001)      cg2d_init_res =   3.26986623703369E-03
(PID.TID 0000.0001)      cg2d_iters(min,last) =      -1     371
(PID.TID 0000.0001)      cg2d_last_res =   8.94781980435319E-08
(PID.TID 0000.0001) // =======================================================
(PID.TID 0000.0001) // Begin MONITOR dynamic field statistics
(PID.TID 0000.0001) // =======================================================
(PID.TID 0000.0001) %MON time_tsnumber                =                 10656
(PID.TID 0000.0001) %MON time_secondsf                =   1.2787200000000E+07
(PID.TID 0000.0001) %MON dynstat_eta_max              =   1.0915102169792E-01
(PID.TID 0000.0001) %MON dynstat_eta_min              =  -2.6560087405030E-01
(PID.TID 0000.0001) %MON dynstat_eta_mean             =  -4.5326491855639E-08
(PID.TID 0000.0001) %MON dynstat_eta_sd               =   9.8735905592700E-02
(PID.TID 0000.0001) %MON dynstat_eta_del2             =   5.8525748950956E-07
(PID.TID 0000.0001) %MON dynstat_uvel_max             =   9.9443992902154E-02
(PID.TID 0000.0001) %MON dynstat_uvel_min             =  -1.0973948729109E-01
(PID.TID 0000.0001) %MON dynstat_uvel_mean            =  -9.8539151754327E-08
(PID.TID 0000.0001) %MON dynstat_uvel_sd              =   4.0738864557473E-02
(PID.TID 0000.0001) %MON dynstat_uvel_del2            =   9.1445561375335E-07
(PID.TID 0000.0001) %MON dynstat_vvel_max             =   1.1140712754123E-01
(PID.TID 0000.0001) %MON dynstat_vvel_min             =  -9.1856585798423E-02
(PID.TID 0000.0001) %MON dynstat_vvel_mean            =  -2.1134025162140E-07
(PID.TID 0000.0001) %MON dynstat_vvel_sd              =   3.7395478408446E-02
(PID.TID 0000.0001) %MON dynstat_vvel_del2            =   1.1842054467588E-06
(PID.TID 0000.0001) %MON dynstat_wvel_max             =   1.4429956355598E-08
(PID.TID 0000.0001) %MON dynstat_wvel_min             =  -1.4264906477183E-08
(PID.TID 0000.0001) %MON dynstat_wvel_mean            =   6.6164704535228E-21
(PID.TID 0000.0001) %MON dynstat_wvel_sd              =   5.4603154361440E-09
(PID.TID 0000.0001) %MON dynstat_wvel_del2            =   4.7004560886174E-14
(PID.TID 0000.0001) %MON dynstat_theta_max            =   2.0000000000000E+01
(PID.TID 0000.0001) %MON dynstat_theta_min            =   2.0000000000000E+01
(PID.TID 0000.0001) %MON dynstat_theta_mean           =   1.9999999999999E+01
(PID.TID 0000.0001) %MON dynstat_theta_sd             =   1.1972645097557E-12
(PID.TID 0000.0001) %MON dynstat_theta_del2           =   0.0000000000000E+00
(PID.TID 0000.0001) %MON dynstat_salt_max             =   3.0000000000000E+01
(PID.TID 0000.0001) %MON dynstat_salt_min             =   3.0000000000000E+01
(PID.TID 0000.0001) %MON dynstat_salt_mean            =   2.9999999999998E+01
(PID.TID 0000.0001) %MON dynstat_salt_sd              =   2.1529444893531E-12
(PID.TID 0000.0001) %MON dynstat_salt_del2            =   0.0000000000000E+00
(PID.TID 0000.0001) %MON trAdv_CFL_u_max              =   2.6336292434914E-02
(PID.TID 0000.0001) %MON trAdv_CFL_v_max              =   2.6736206174549E-02
(PID.TID 0000.0001) %MON trAdv_CFL_w_max              =   3.7058852989401E-09
(PID.TID 0000.0001) %MON advcfl_uvel_max              =   2.6337476949863E-02
(PID.TID 0000.0001) %MON advcfl_vvel_max              =   2.6737710609895E-02
(PID.TID 0000.0001) %MON advcfl_wvel_max              =   6.9263790506870E-09
(PID.TID 0000.0001) %MON advcfl_W_hf_max              =   0.0000000000000E+00
(PID.TID 0000.0001) %MON pe_b_mean                    =   9.9743362410668E-06
(PID.TID 0000.0001) %MON ke_max                       =   6.2587978391945E-03
(PID.TID 0000.0001) %MON ke_mean                      =   1.5221556614914E-03
(PID.TID 0000.0001) %MON ke_vol                       =   7.2529629296391E+15
(PID.TID 0000.0001) %MON vort_r_min                   =  -3.9698745741172E-06
(PID.TID 0000.0001) %MON vort_r_max                   =   3.0069829899821E-06
(PID.TID 0000.0001) %MON vort_a_mean                  =   1.0615000000000E-04
(PID.TID 0000.0001) %MON vort_a_sd                    =   3.6152467392256E-06
(PID.TID 0000.0001) %MON vort_p_mean                  =   1.1210870169429E-04
(PID.TID 0000.0001) %MON vort_p_sd                    =   2.1063002351083E-05
(PID.TID 0000.0001) %MON surfExpan_theta_mean         =   1.3192481984665E-19
(PID.TID 0000.0001) %MON surfExpan_salt_mean          =   1.9783977571615E-19
(PID.TID 0000.0001) // =======================================================
(PID.TID 0000.0001) // End MONITOR dynamic field statistics
(PID.TID 0000.0001) // =======================================================
 cg2d: Sum(rhs),rhsMax =   7.63494187084617E-04  1.24752777924730E-02
 cg2d: Sum(rhs),rhsMax =   7.63703242625948E-04  1.24757582078169E-02
 cg2d: Sum(rhs),rhsMax =   7.63911950457954E-04  1.24762381168912E-02
 cg2d: Sum(rhs),rhsMax =   7.64120484845601E-04  1.24767175216130E-02
 cg2d: Sum(rhs),rhsMax =   7.64328608394973E-04  1.24771964185356E-02
 cg2d: Sum(rhs),rhsMax =   7.64536619946727E-04  1.24776748158707E-02
 cg2d: Sum(rhs),rhsMax =   7.64744375314029E-04  1.24781527056768E-02
 cg2d: Sum(rhs),rhsMax =   7.64951958939240E-04  1.24786300878503E-02
 cg2d: Sum(rhs),rhsMax =   7.65159301981871E-04  1.24791069621714E-02
 cg2d: Sum(rhs),rhsMax =   7.65366411048064E-04  1.24795833288717E-02
 cg2d: Sum(rhs),rhsMax =   7.65573280744695E-04  1.24800591878338E-02
 cg2d: Sum(rhs),rhsMax =   7.65779939975201E-04  1.24805345376106E-02
 cg2d: Sum(rhs),rhsMax =   7.65986276670509E-04  1.24810093781984E-02
 cg2d: Sum(rhs),rhsMax =   7.66192432201137E-04  1.24814837109016E-02
 cg2d: Sum(rhs),rhsMax =   7.66398254601121E-04  1.24819575340203E-02
 cg2d: Sum(rhs),rhsMax =   7.66603915502125E-04  1.24824308456134E-02
 cg2d: Sum(rhs),rhsMax =   7.66809342971374E-04  1.24829036454245E-02
 cg2d: Sum(rhs),rhsMax =   7.67014553461254E-04  1.24833759361448E-02
 cg2d: Sum(rhs),rhsMax =   7.67219496944093E-04  1.24838477136197E-02
 cg2d: Sum(rhs),rhsMax =   7.67424220027606E-04  1.24843194991324E-02
 cg2d: Sum(rhs),rhsMax =   7.67627487007412E-04  1.24848101958990E-02
 cg2d: Sum(rhs),rhsMax =   7.67830541754333E-04  1.24853003563121E-02
 cg2d: Sum(rhs),rhsMax =   7.68033268501807E-04  1.24857899948007E-02
 cg2d: Sum(rhs),rhsMax =   7.68235847053449E-04  1.24862790959406E-02
 cg2d: Sum(rhs),rhsMax =   7.68438157333585E-04  1.24867676725344E-02
 cg2d: Sum(rhs),rhsMax =   7.68640262987966E-04  1.24872557142394E-02
 cg2d: Sum(rhs),rhsMax =   7.68842167195010E-04  1.24877432301065E-02
 cg2d: Sum(rhs),rhsMax =   7.69043847358174E-04  1.24882302089328E-02
 cg2d: Sum(rhs),rhsMax =   7.69245281151184E-04  1.24887166622299E-02
 cg2d: Sum(rhs),rhsMax =   7.69446482532550E-04  1.24892025751560E-02
 cg2d: Sum(rhs),rhsMax =   7.69647229009173E-04  1.24896879614151E-02
 cg2d: Sum(rhs),rhsMax =   7.69847875381703E-04  1.24901728097846E-02
 cg2d: Sum(rhs),rhsMax =   7.70048340704547E-04  1.24906571284096E-02
 cg2d: Sum(rhs),rhsMax =   7.70248603044751E-04  1.24911409090327E-02
 cg2d: Sum(rhs),rhsMax =   7.70448650978259E-04  1.24916241594914E-02
 cg2d: Sum(rhs),rhsMax =   7.70648321550098E-04  1.24921068710061E-02
 cg2d: Sum(rhs),rhsMax =   7.70847898682507E-04  1.24925890501092E-02
 cg2d: Sum(rhs),rhsMax =   7.71047172461140E-04  1.24930706903884E-02
 cg2d: Sum(rhs),rhsMax =   7.71246283745307E-04  1.24935517976717E-02
 cg2d: Sum(rhs),rhsMax =   7.71445165141575E-04  1.24940323645773E-02
 cg2d: Sum(rhs),rhsMax =   7.71643801788327E-04  1.24945123975882E-02
 cg2d: Sum(rhs),rhsMax =   7.71842122549453E-04  1.24949918914574E-02
 cg2d: Sum(rhs),rhsMax =   7.72040301731503E-04  1.24954708463871E-02
 cg2d: Sum(rhs),rhsMax =   7.72238196550963E-04  1.24959492586532E-02
 cg2d: Sum(rhs),rhsMax =   7.72435918005875E-04  1.24964271376575E-02
 cg2d: Sum(rhs),rhsMax =   7.72633412811639E-04  1.24969044726793E-02
 cg2d: Sum(rhs),rhsMax =   7.72830677897355E-04  1.24973812732493E-02
 cg2d: Sum(rhs),rhsMax =   7.73027655737325E-04  1.24978575283816E-02
 cg2d: Sum(rhs),rhsMax =   7.73224435821059E-04  1.24983332483283E-02
 cg2d: Sum(rhs),rhsMax =   7.73420949823351E-04  1.24988084225885E-02
 cg2d: Sum(rhs),rhsMax =   7.73617245607228E-04  1.24992830597868E-02
 cg2d: Sum(rhs),rhsMax =   7.73813343387242E-04  1.24997571508504E-02
 cg2d: Sum(rhs),rhsMax =   7.74009219980455E-04  1.25002307041864E-02
 cg2d: Sum(rhs),rhsMax =   7.74204831022581E-04  1.25007037115084E-02
 cg2d: Sum(rhs),rhsMax =   7.74400237902075E-04  1.25011761771134E-02
 cg2d: Sum(rhs),rhsMax =   7.74595335365716E-04  1.25016480957710E-02
 cg2d: Sum(rhs),rhsMax =   7.74790261477393E-04  1.25021194749334E-02
 cg2d: Sum(rhs),rhsMax =   7.74984955576832E-04  1.25025903051696E-02
 cg2d: Sum(rhs),rhsMax =   7.75179410166407E-04  1.25030605954510E-02
 cg2d: Sum(rhs),rhsMax =   7.75373646064191E-04  1.25035303359006E-02
 cg2d: Sum(rhs),rhsMax =   7.75567663182561E-04  1.25039995360958E-02
 cg2d: Sum(rhs),rhsMax =   7.75761263102508E-04  1.25044681862538E-02
 cg2d: Sum(rhs),rhsMax =   7.75954760972706E-04  1.25049362939352E-02
 cg2d: Sum(rhs),rhsMax =   7.76148019014820E-04  1.25054038504864E-02
 cg2d: Sum(rhs),rhsMax =   7.76341055283047E-04  1.25058708659963E-02
 cg2d: Sum(rhs),rhsMax =   7.76533912054704E-04  1.25063373283476E-02
 cg2d: Sum(rhs),rhsMax =   7.76726489255445E-04  1.25068032499166E-02
 cg2d: Sum(rhs),rhsMax =   7.76918882624959E-04  1.25072686158533E-02
 cg2d: Sum(rhs),rhsMax =   7.77110921001928E-04  1.25077334405963E-02
 cg2d: Sum(rhs),rhsMax =   7.77302792491089E-04  1.25081977108561E-02
 cg2d: Sum(rhs),rhsMax =   7.77494447966629E-04  1.25086614386859E-02
 cg2d: Sum(rhs),rhsMax =   7.77685869910318E-04  1.25091246091339E-02
(PID.TID 0000.0001)      cg2d_init_res =   3.26682271957829E-03
(PID.TID 0000.0001)      cg2d_iters(min,last) =      -1     371
(PID.TID 0000.0001)      cg2d_last_res =   9.39876298675703E-08
(PID.TID 0000.0001) // =======================================================
(PID.TID 0000.0001) // Begin MONITOR dynamic field statistics
(PID.TID 0000.0001) // =======================================================
(PID.TID 0000.0001) %MON time_tsnumber                =                 10728
(PID.TID 0000.0001) %MON time_secondsf                =   1.2873600000000E+07
(PID.TID 0000.0001) %MON dynstat_eta_max              =   1.0964357572100E-01
(PID.TID 0000.0001) %MON dynstat_eta_min              =  -2.6670200987967E-01
(PID.TID 0000.0001) %MON dynstat_eta_mean             =  -4.6307369027590E-08
(PID.TID 0000.0001) %MON dynstat_eta_sd               =   9.9080378958753E-02
(PID.TID 0000.0001) %MON dynstat_eta_del2             =   5.8776951488712E-07
(PID.TID 0000.0001) %MON dynstat_uvel_max             =   9.9898704313504E-02
(PID.TID 0000.0001) %MON dynstat_uvel_min             =  -1.1008742783601E-01
(PID.TID 0000.0001) %MON dynstat_uvel_mean            =  -1.2120149063139E-07
(PID.TID 0000.0001) %MON dynstat_uvel_sd              =   4.0917487278442E-02
(PID.TID 0000.0001) %MON dynstat_uvel_del2            =   9.1744634367159E-07
(PID.TID 0000.0001) %MON dynstat_vvel_max             =   1.1186361334801E-01
(PID.TID 0000.0001) %MON dynstat_vvel_min             =  -9.2143704624674E-02
(PID.TID 0000.0001) %MON dynstat_vvel_mean            =  -1.9040727004517E-07
(PID.TID 0000.0001) %MON dynstat_vvel_sd              =   3.7508942177656E-02
(PID.TID 0000.0001) %MON dynstat_vvel_del2            =   1.1912588204981E-06
(PID.TID 0000.0001) %MON dynstat_wvel_max             =   1.4137916511390E-08
(PID.TID 0000.0001) %MON dynstat_wvel_min             =  -1.4393592630513E-08
(PID.TID 0000.0001) %MON dynstat_wvel_mean            =   4.6977806793687E-21
(PID.TID 0000.0001) %MON dynstat_wvel_sd              =   5.4030975649280E-09
(PID.TID 0000.0001) %MON dynstat_wvel_del2            =   4.7153612026847E-14
(PID.TID 0000.0001) %MON dynstat_theta_max            =   2.0000000000000E+01
(PID.TID 0000.0001) %MON dynstat_theta_min            =   2.0000000000000E+01
(PID.TID 0000.0001) %MON dynstat_theta_mean           =   1.9999999999999E+01
(PID.TID 0000.0001) %MON dynstat_theta_sd             =   1.1972645097557E-12
(PID.TID 0000.0001) %MON dynstat_theta_del2           =   0.0000000000000E+00
(PID.TID 0000.0001) %MON dynstat_salt_max             =   3.0000000000000E+01
(PID.TID 0000.0001) %MON dynstat_salt_min             =   3.0000000000000E+01
(PID.TID 0000.0001) %MON dynstat_salt_mean            =   2.9999999999998E+01
(PID.TID 0000.0001) %MON dynstat_salt_sd              =   2.1529444893531E-12
(PID.TID 0000.0001) %MON dynstat_salt_del2            =   0.0000000000000E+00
(PID.TID 0000.0001) %MON trAdv_CFL_u_max              =   2.6419847313396E-02
(PID.TID 0000.0001) %MON trAdv_CFL_v_max              =   2.6845727528795E-02
(PID.TID 0000.0001) %MON trAdv_CFL_w_max              =   3.6348708048177E-09
(PID.TID 0000.0001) %MON advcfl_uvel_max              =   2.6420982680643E-02
(PID.TID 0000.0001) %MON advcfl_vvel_max              =   2.6847267203522E-02
(PID.TID 0000.0001) %MON advcfl_wvel_max              =   6.9089244626462E-09
(PID.TID 0000.0001) %MON advcfl_W_hf_max              =   0.0000000000000E+00
(PID.TID 0000.0001) %MON pe_b_mean                    =   1.0044055291945E-05
(PID.TID 0000.0001) %MON ke_max                       =   6.3087718580630E-03
(PID.TID 0000.0001) %MON ke_mean                      =   1.5336460139848E-03
(PID.TID 0000.0001) %MON ke_vol                       =   7.2529629296391E+15
(PID.TID 0000.0001) %MON vort_r_min                   =  -3.9813826683410E-06
(PID.TID 0000.0001) %MON vort_r_max                   =   3.0334490829506E-06
(PID.TID 0000.0001) %MON vort_a_mean                  =   1.0615000000000E-04
(PID.TID 0000.0001) %MON vort_a_sd                    =   3.6156810392425E-06
(PID.TID 0000.0001) %MON vort_p_mean                  =   1.1210870169429E-04
(PID.TID 0000.0001) %MON vort_p_sd                    =   2.1063066530674E-05
(PID.TID 0000.0001) %MON surfExpan_theta_mean         =   9.3745027750960E-20
(PID.TID 0000.0001) %MON surfExpan_salt_mean          =   1.4057005939326E-19
(PID.TID 0000.0001) // =======================================================
(PID.TID 0000.0001) // End MONITOR dynamic field statistics
(PID.TID 0000.0001) // =======================================================
 cg2d: Sum(rhs),rhsMax =   7.77877089893802E-04  1.25095872378750E-02
 cg2d: Sum(rhs),rhsMax =   7.78068068798925E-04  1.25100493073420E-02
 cg2d: Sum(rhs),rhsMax =   7.78258629515560E-04  1.25105108364021E-02
 cg2d: Sum(rhs),rhsMax =   7.78449097506882E-04  1.25109718040800E-02
 cg2d: Sum(rhs),rhsMax =   7.78639302561045E-04  1.25114322273914E-02
 cg2d: Sum(rhs),rhsMax =   7.78829306097429E-04  1.25118920936427E-02
 cg2d: Sum(rhs),rhsMax =   7.79019120644993E-04  1.25123514153873E-02
 cg2d: Sum(rhs),rhsMax =   7.79208657579768E-04  1.25128101780104E-02
 cg2d: Sum(rhs),rhsMax =   7.79398009935470E-04  1.25132683944936E-02
 cg2d: Sum(rhs),rhsMax =   7.79586980592469E-04  1.25137260514986E-02
 cg2d: Sum(rhs),rhsMax =   7.79775818690015E-04  1.25141831634068E-02
 cg2d: Sum(rhs),rhsMax =   7.79964393548185E-04  1.25146397159767E-02
 cg2d: Sum(rhs),rhsMax =   7.80152747651114E-04  1.25150957197147E-02
 cg2d: Sum(rhs),rhsMax =   7.80340887086237E-04  1.25155511636728E-02
 cg2d: Sum(rhs),rhsMax =   7.80528800761855E-04  1.25160060590167E-02
 cg2d: Sum(rhs),rhsMax =   7.80716372060394E-04  1.25164603956315E-02
 cg2d: Sum(rhs),rhsMax =   7.80903792535070E-04  1.25169141798714E-02
 cg2d: Sum(rhs),rhsMax =   7.81090951433961E-04  1.25173674034324E-02
 cg2d: Sum(rhs),rhsMax =   7.81277911617400E-04  1.25178200774969E-02
 cg2d: Sum(rhs),rhsMax =   7.81464542116280E-04  1.25182721902949E-02
 cg2d: Sum(rhs),rhsMax =   7.81650971429603E-04  1.25187237528014E-02
 cg2d: Sum(rhs),rhsMax =   7.81837179197602E-04  1.25191747535656E-02
 cg2d: Sum(rhs),rhsMax =   7.82023174469163E-04  1.25196252027215E-02
 cg2d: Sum(rhs),rhsMax =   7.82208890701250E-04  1.25200750895854E-02
 cg2d: Sum(rhs),rhsMax =   7.82394410688945E-04  1.25205244231977E-02
 cg2d: Sum(rhs),rhsMax =   7.82579619325855E-04  1.25209731943804E-02
 cg2d: Sum(rhs),rhsMax =   7.82764637205205E-04  1.25214214134487E-02
 cg2d: Sum(rhs),rhsMax =   7.82949403803555E-04  1.25218690683899E-02
 cg2d: Sum(rhs),rhsMax =   7.83133921181119E-04  1.25223161700442E-02
 cg2d: Sum(rhs),rhsMax =   7.83318222218837E-04  1.25227627071826E-02
 cg2d: Sum(rhs),rhsMax =   7.83502272456401E-04  1.25232086918342E-02
 cg2d: Sum(rhs),rhsMax =   7.83685963458160E-04  1.25236541127288E-02
 cg2d: Sum(rhs),rhsMax =   7.83869517282517E-04  1.25240989773647E-02
 cg2d: Sum(rhs),rhsMax =   7.84052798610799E-04  1.25245432767311E-02
 cg2d: Sum(rhs),rhsMax =   7.84235910232044E-04  1.25249870232426E-02
 cg2d: Sum(rhs),rhsMax =   7.84418757498533E-04  1.25254302034717E-02
 cg2d: Sum(rhs),rhsMax =   7.84601362277180E-04  1.25258728277469E-02
 cg2d: Sum(rhs),rhsMax =   7.84783638967577E-04  1.25263148866347E-02
 cg2d: Sum(rhs),rhsMax =   7.84965748774393E-04  1.25267563894893E-02
 cg2d: Sum(rhs),rhsMax =   7.85147574777486E-04  1.25271973248936E-02
 cg2d: Sum(rhs),rhsMax =   7.85329186737932E-04  1.25276377039601E-02
 cg2d: Sum(rhs),rhsMax =   7.85510575996800E-04  1.25280775154890E-02
 cg2d: Sum(rhs),rhsMax =   7.85691712032034E-04  1.25285167714729E-02
 cg2d: Sum(rhs),rhsMax =   7.85872534650636E-04  1.25289554603329E-02
 cg2d: Sum(rhs),rhsMax =   7.86053158075811E-04  1.25293935904343E-02
 cg2d: Sum(rhs),rhsMax =   7.86233493463724E-04  1.25298311525522E-02
 cg2d: Sum(rhs),rhsMax =   7.86413625578526E-04  1.25302681584506E-02
 cg2d: Sum(rhs),rhsMax =   7.86593487026572E-04  1.25307045957505E-02
 cg2d: Sum(rhs),rhsMax =   7.86773105586681E-04  1.25311404733766E-02
 cg2d: Sum(rhs),rhsMax =   7.86952512121752E-04  1.25315757819069E-02
 cg2d: Sum(rhs),rhsMax =   7.87131663943241E-04  1.25320105330400E-02
 cg2d: Sum(rhs),rhsMax =   7.87310501269338E-04  1.25324447153951E-02
 cg2d: Sum(rhs),rhsMax =   7.87489132661860E-04  1.25328783373619E-02
 cg2d: Sum(rhs),rhsMax =   7.87667494365568E-04  1.25333113894587E-02
 cg2d: Sum(rhs),rhsMax =   7.87845620169120E-04  1.25337438833361E-02
 cg2d: Sum(rhs),rhsMax =   7.88023501922728E-04  1.25341758069898E-02
 cg2d: Sum(rhs),rhsMax =   7.88201170127286E-04  1.25346071695521E-02
 cg2d: Sum(rhs),rhsMax =   7.88378486163383E-04  1.25350379620390E-02
 cg2d: Sum(rhs),rhsMax =   7.88555606704766E-04  1.25354681947047E-02
 cg2d: Sum(rhs),rhsMax =   7.88732459227752E-04  1.25358978557949E-02
 cg2d: Sum(rhs),rhsMax =   7.88909104575663E-04  1.25363269553657E-02
 cg2d: Sum(rhs),rhsMax =   7.89085390596219E-04  1.25367554830587E-02
 cg2d: Sum(rhs),rhsMax =   7.89261501967731E-04  1.25371834526726E-02
 cg2d: Sum(rhs),rhsMax =   7.89437343812253E-04  1.25376108486138E-02
 cg2d: Sum(rhs),rhsMax =   7.89612995639601E-04  1.25380376844444E-02
 cg2d: Sum(rhs),rhsMax =   7.89788375305094E-04  1.25384639469059E-02
 cg2d: Sum(rhs),rhsMax =   7.89963530147975E-04  1.25388896493877E-02
 cg2d: Sum(rhs),rhsMax =   7.90138379109529E-04  1.25393147792022E-02
 cg2d: Sum(rhs),rhsMax =   7.90312998083208E-04  1.25397393449725E-02
 cg2d: Sum(rhs),rhsMax =   7.90487222930509E-04  1.25401633376664E-02
 cg2d: Sum(rhs),rhsMax =   7.90661285293884E-04  1.25405867707466E-02
 cg2d: Sum(rhs),rhsMax =   7.90835089301984E-04  1.25410096283822E-02
(PID.TID 0000.0001)      cg2d_init_res =   3.26278758741183E-03
(PID.TID 0000.0001)      cg2d_iters(min,last) =      -1     371
(PID.TID 0000.0001)      cg2d_last_res =   9.81141584921889E-08
(PID.TID 0000.0001) // =======================================================
(PID.TID 0000.0001) // Begin MONITOR dynamic field statistics
(PID.TID 0000.0001) // =======================================================
(PID.TID 0000.0001) %MON time_tsnumber                =                 10800
(PID.TID 0000.0001) %MON time_secondsf                =   1.2960000000000E+07
(PID.TID 0000.0001) %MON dynstat_eta_max              =   1.1018857563411E-01
(PID.TID 0000.0001) %MON dynstat_eta_min              =  -2.6781771993498E-01
(PID.TID 0000.0001) %MON dynstat_eta_mean             =  -4.7208969404073E-08
(PID.TID 0000.0001) %MON dynstat_eta_sd               =   9.9422120063446E-02
(PID.TID 0000.0001) %MON dynstat_eta_del2             =   5.9027859390876E-07
(PID.TID 0000.0001) %MON dynstat_uvel_max             =   1.0033261325902E-01
(PID.TID 0000.0001) %MON dynstat_uvel_min             =  -1.1042031926448E-01
(PID.TID 0000.0001) %MON dynstat_uvel_mean            =  -1.3837806177804E-07
(PID.TID 0000.0001) %MON dynstat_uvel_sd              =   4.1087538508514E-02
(PID.TID 0000.0001) %MON dynstat_uvel_del2            =   9.2000836745777E-07
(PID.TID 0000.0001) %MON dynstat_vvel_max             =   1.1233216821233E-01
(PID.TID 0000.0001) %MON dynstat_vvel_min             =  -9.2426464032593E-02
(PID.TID 0000.0001) %MON dynstat_vvel_mean            =  -1.6618452078096E-07
(PID.TID 0000.0001) %MON dynstat_vvel_sd              =   3.7631307958430E-02
(PID.TID 0000.0001) %MON dynstat_vvel_del2            =   1.1986521736592E-06
(PID.TID 0000.0001) %MON dynstat_wvel_max             =   1.3680190132000E-08
(PID.TID 0000.0001) %MON dynstat_wvel_min             =  -1.4499250687659E-08
(PID.TID 0000.0001) %MON dynstat_wvel_mean            =  -1.3418661961462E-20
(PID.TID 0000.0001) %MON dynstat_wvel_sd              =   5.3395261206825E-09
(PID.TID 0000.0001) %MON dynstat_wvel_del2            =   4.7305850521634E-14
(PID.TID 0000.0001) %MON dynstat_theta_max            =   2.0000000000000E+01
(PID.TID 0000.0001) %MON dynstat_theta_min            =   2.0000000000000E+01
(PID.TID 0000.0001) %MON dynstat_theta_mean           =   1.9999999999999E+01
(PID.TID 0000.0001) %MON dynstat_theta_sd             =   1.1972645097557E-12
(PID.TID 0000.0001) %MON dynstat_theta_del2           =   0.0000000000000E+00
(PID.TID 0000.0001) %MON dynstat_salt_max             =   3.0000000000000E+01
(PID.TID 0000.0001) %MON dynstat_salt_min             =   3.0000000000000E+01
(PID.TID 0000.0001) %MON dynstat_salt_mean            =   2.9999999999998E+01
(PID.TID 0000.0001) %MON dynstat_salt_sd              =   2.1529444893531E-12
(PID.TID 0000.0001) %MON dynstat_salt_del2            =   0.0000000000000E+00
(PID.TID 0000.0001) %MON trAdv_CFL_u_max              =   2.6499792200706E-02
(PID.TID 0000.0001) %MON trAdv_CFL_v_max              =   2.6958130091972E-02
(PID.TID 0000.0001) %MON trAdv_CFL_w_max              =   3.5188649053523E-09
(PID.TID 0000.0001) %MON advcfl_uvel_max              =   2.6500876623474E-02
(PID.TID 0000.0001) %MON advcfl_vvel_max              =   2.6959720370959E-02
(PID.TID 0000.0001) %MON advcfl_wvel_max              =   6.9596403300762E-09
(PID.TID 0000.0001) %MON advcfl_W_hf_max              =   0.0000000000000E+00
(PID.TID 0000.0001) %MON pe_b_mean                    =   1.0113461285318E-05
(PID.TID 0000.0001) %MON ke_max                       =   6.3598769606930E-03
(PID.TID 0000.0001) %MON ke_mean                      =   1.5451637592366E-03
(PID.TID 0000.0001) %MON ke_vol                       =   7.2529629296391E+15
(PID.TID 0000.0001) %MON vort_r_min                   =  -3.9919967767735E-06
(PID.TID 0000.0001) %MON vort_r_max                   =   3.0615747700259E-06
(PID.TID 0000.0001) %MON vort_a_mean                  =   1.0615000000000E-04
(PID.TID 0000.0001) %MON vort_a_sd                    =   3.6161146725314E-06
(PID.TID 0000.0001) %MON vort_p_mean                  =   1.1210870169429E-04
(PID.TID 0000.0001) %MON vort_p_sd                    =   2.1063145389626E-05
(PID.TID 0000.0001) %MON surfExpan_theta_mean         =  -2.6863081408478E-19
(PID.TID 0000.0001) %MON surfExpan_salt_mean          =  -4.0285572543873E-19
(PID.TID 0000.0001) // =======================================================
(PID.TID 0000.0001) // End MONITOR dynamic field statistics
(PID.TID 0000.0001) // =======================================================
 cg2d: Sum(rhs),rhsMax =   7.91008682221723E-04  1.25414319244717E-02
 cg2d: Sum(rhs),rhsMax =   7.91182001789570E-04  1.25418536457635E-02
 cg2d: Sum(rhs),rhsMax =   7.91355089466353E-04  1.25422748053591E-02
 cg2d: Sum(rhs),rhsMax =   7.91527842797056E-04  1.25426953896383E-02
 cg2d: Sum(rhs),rhsMax =   7.91700413700155E-04  1.25431154130565E-02
 cg2d: Sum(rhs),rhsMax =   7.91872652504612E-04  1.25435348629025E-02
 cg2d: Sum(rhs),rhsMax =   7.92044664211315E-04  1.25439537482529E-02
 cg2d: Sum(rhs),rhsMax =   7.92216448079319E-04  1.25443720584519E-02
 cg2d: Sum(rhs),rhsMax =   7.92387954467363E-04  1.25447898041276E-02
 cg2d: Sum(rhs),rhsMax =   7.92559163480151E-04  1.25452069747573E-02
 cg2d: Sum(rhs),rhsMax =   7.92730135685279E-04  1.25456235845654E-02
 cg2d: Sum(rhs),rhsMax =   7.92900839782638E-04  1.25460396188909E-02
 cg2d: Sum(rhs),rhsMax =   7.93071286093563E-04  1.25464550873925E-02
 cg2d: Sum(rhs),rhsMax =   7.93241535684587E-04  1.25468699803748E-02
 cg2d: Sum(rhs),rhsMax =   7.93411490993013E-04  1.25472843097307E-02
 cg2d: Sum(rhs),rhsMax =   7.93581135208913E-04  1.25476980644081E-02
 cg2d: Sum(rhs),rhsMax =   7.93750537429611E-04  1.25481112524609E-02
 cg2d: Sum(rhs),rhsMax =   7.93919681729737E-04  1.25485238650663E-02
 cg2d: Sum(rhs),rhsMax =   7.94088567665930E-04  1.25489359140382E-02
 cg2d: Sum(rhs),rhsMax =   7.94257191045021E-04  1.25493473863389E-02
 cg2d: Sum(rhs),rhsMax =   7.94425547402527E-04  1.25497582930553E-02
 cg2d: Sum(rhs),rhsMax =   7.94593616762110E-04  1.25501686226853E-02
 cg2d: Sum(rhs),rhsMax =   7.94761439898666E-04  1.25505783908521E-02
 cg2d: Sum(rhs),rhsMax =   7.94928983173510E-04  1.25509875826582E-02
 cg2d: Sum(rhs),rhsMax =   7.95096302137996E-04  1.25513962056991E-02
 cg2d: Sum(rhs),rhsMax =   7.95263338437834E-04  1.25518042527627E-02
 cg2d: Sum(rhs),rhsMax =   7.95430120828595E-04  1.25522117358008E-02
 cg2d: Sum(rhs),rhsMax =   7.95596610572821E-04  1.25526186422123E-02
 cg2d: Sum(rhs),rhsMax =   7.95762855385972E-04  1.25530249803105E-02
 cg2d: Sum(rhs),rhsMax =   7.95928848763271E-04  1.25534307414401E-02
 cg2d: Sum(rhs),rhsMax =   7.96094575941221E-04  1.25538359389965E-02
 cg2d: Sum(rhs),rhsMax =   7.96259986309226E-04  1.25542405595499E-02
 cg2d: Sum(rhs),rhsMax =   7.96425176580511E-04  1.25546446126159E-02
 cg2d: Sum(rhs),rhsMax =   7.96590046335718E-04  1.25550480887089E-02
 cg2d: Sum(rhs),rhsMax =   7.96754728177218E-04  1.25554510003901E-02
 cg2d: Sum(rhs),rhsMax =   7.96919131274042E-04  1.25558533331212E-02
 cg2d: Sum(rhs),rhsMax =   7.97083273822030E-04  1.25562550996939E-02
 cg2d: Sum(rhs),rhsMax =   7.97247106447447E-04  1.25566562890924E-02
 cg2d: Sum(rhs),rhsMax =   7.97410687720233E-04  1.25570569116868E-02
 cg2d: Sum(rhs),rhsMax =   7.97573940568841E-04  1.25574569571903E-02
 cg2d: Sum(rhs),rhsMax =   7.97736983461078E-04  1.25578564345668E-02
 cg2d: Sum(rhs),rhsMax =   7.97899722901141E-04  1.25582553349472E-02
 cg2d: Sum(rhs),rhsMax =   7.98039418867406E-04  1.25586536681475E-02
 cg2d: Sum(rhs),rhsMax =   7.98178866859565E-04  1.25590514284749E-02
 cg2d: Sum(rhs),rhsMax =   7.98318151106852E-04  1.25594486167753E-02
 cg2d: Sum(rhs),rhsMax =   7.98457104962244E-04  1.25598452306124E-02
 cg2d: Sum(rhs),rhsMax =   7.98595880292916E-04  1.25602412740658E-02
 cg2d: Sum(rhs),rhsMax =   7.98734216141192E-04  1.25606367429929E-02
 cg2d: Sum(rhs),rhsMax =   7.98872492600440E-04  1.25610316434712E-02
 cg2d: Sum(rhs),rhsMax =   7.99010522784813E-04  1.25614259692415E-02
 cg2d: Sum(rhs),rhsMax =   7.99148347029242E-04  1.25618197234138E-02
 cg2d: Sum(rhs),rhsMax =   7.99285940240512E-04  1.25622129040054E-02
 cg2d: Sum(rhs),rhsMax =   7.99423265081804E-04  1.25626055128071E-02
 cg2d: Sum(rhs),rhsMax =   7.99560375007110E-04  1.25629975494185E-02
 cg2d: Sum(rhs),rhsMax =   7.99697188249853E-04  1.25633890114185E-02
 cg2d: Sum(rhs),rhsMax =   7.99833788498112E-04  1.25637799012569E-02
 cg2d: Sum(rhs),rhsMax =   7.99970201600267E-04  1.25641702215009E-02
 cg2d: Sum(rhs),rhsMax =   8.00106322495267E-04  1.25645599686477E-02
 cg2d: Sum(rhs),rhsMax =   8.00242263811141E-04  1.25649491434353E-02
 cg2d: Sum(rhs),rhsMax =   8.00377944310968E-04  1.25653377435773E-02
 cg2d: Sum(rhs),rhsMax =   8.00513391950055E-04  1.25657257732982E-02
 cg2d: Sum(rhs),rhsMax =   8.00648590309495E-04  1.25661132290791E-02
 cg2d: Sum(rhs),rhsMax =   8.00783592861296E-04  1.25665001134133E-02
 cg2d: Sum(rhs),rhsMax =   8.00918252497149E-04  1.25668864248167E-02
 cg2d: Sum(rhs),rhsMax =   8.01052744918393E-04  1.25672721631245E-02
 cg2d: Sum(rhs),rhsMax =   8.01187001237597E-04  1.25676573282039E-02
 cg2d: Sum(rhs),rhsMax =   8.01321027692868E-04  1.25680419235011E-02
 cg2d: Sum(rhs),rhsMax =   8.01454753171952E-04  1.25684259435602E-02
 cg2d: Sum(rhs),rhsMax =   8.01588299954603E-04  1.25688093948695E-02
 cg2d: Sum(rhs),rhsMax =   8.01721597080401E-04  1.25691922745233E-02
 cg2d: Sum(rhs),rhsMax =   8.01854675324419E-04  1.25695745787702E-02
 cg2d: Sum(rhs),rhsMax =   8.01987469985442E-04  1.25699563095982E-02
(PID.TID 0000.0001)      cg2d_init_res =   3.25628919041073E-03
(PID.TID 0000.0001)      cg2d_iters(min,last) =      -1     372
(PID.TID 0000.0001)      cg2d_last_res =   8.84557180962717E-08
(PID.TID 0000.0001) // =======================================================
(PID.TID 0000.0001) // Begin MONITOR dynamic field statistics
(PID.TID 0000.0001) // =======================================================
(PID.TID 0000.0001) %MON time_tsnumber                =                 10872
(PID.TID 0000.0001) %MON time_secondsf                =   1.3046400000000E+07
(PID.TID 0000.0001) %MON dynstat_eta_max              =   1.1078036867276E-01
(PID.TID 0000.0001) %MON dynstat_eta_min              =  -2.6895813578927E-01
(PID.TID 0000.0001) %MON dynstat_eta_mean             =  -4.7982454030204E-08
(PID.TID 0000.0001) %MON dynstat_eta_sd               =   9.9760013805103E-02
(PID.TID 0000.0001) %MON dynstat_eta_del2             =   5.9277349472784E-07
(PID.TID 0000.0001) %MON dynstat_uvel_max             =   1.0075407862590E-01
(PID.TID 0000.0001) %MON dynstat_uvel_min             =  -1.1074021799533E-01
(PID.TID 0000.0001) %MON dynstat_uvel_mean            =  -1.4953618135118E-07
(PID.TID 0000.0001) %MON dynstat_uvel_sd              =   4.1247980447208E-02
(PID.TID 0000.0001) %MON dynstat_uvel_del2            =   9.2216251257969E-07
(PID.TID 0000.0001) %MON dynstat_vvel_max             =   1.1281604544545E-01
(PID.TID 0000.0001) %MON dynstat_vvel_min             =  -9.2712412198961E-02
(PID.TID 0000.0001) %MON dynstat_vvel_mean            =  -1.3965681795750E-07
(PID.TID 0000.0001) %MON dynstat_vvel_sd              =   3.7763196674158E-02
(PID.TID 0000.0001) %MON dynstat_vvel_del2            =   1.2062020766044E-06
(PID.TID 0000.0001) %MON dynstat_wvel_max             =   1.3088746001013E-08
(PID.TID 0000.0001) %MON dynstat_wvel_min             =  -1.4595138332807E-08
(PID.TID 0000.0001) %MON dynstat_wvel_mean            =   8.7817960633950E-22
(PID.TID 0000.0001) %MON dynstat_wvel_sd              =   5.2699211912240E-09
(PID.TID 0000.0001) %MON dynstat_wvel_del2            =   4.7059622512995E-14
(PID.TID 0000.0001) %MON dynstat_theta_max            =   2.0000000000000E+01
(PID.TID 0000.0001) %MON dynstat_theta_min            =   2.0000000000000E+01
(PID.TID 0000.0001) %MON dynstat_theta_mean           =   1.9999999999999E+01
(PID.TID 0000.0001) %MON dynstat_theta_sd             =   1.1972645097557E-12
(PID.TID 0000.0001) %MON dynstat_theta_del2           =   0.0000000000000E+00
(PID.TID 0000.0001) %MON dynstat_salt_max             =   3.0000000000000E+01
(PID.TID 0000.0001) %MON dynstat_salt_min             =   3.0000000000000E+01
(PID.TID 0000.0001) %MON dynstat_salt_mean            =   2.9999999999998E+01
(PID.TID 0000.0001) %MON dynstat_salt_sd              =   2.1529444893531E-12
(PID.TID 0000.0001) %MON dynstat_salt_del2            =   0.0000000000000E+00
(PID.TID 0000.0001) %MON trAdv_CFL_u_max              =   2.6576595723239E-02
(PID.TID 0000.0001) %MON trAdv_CFL_v_max              =   2.7074215425816E-02
(PID.TID 0000.0001) %MON trAdv_CFL_w_max              =   3.3643555604673E-09
(PID.TID 0000.0001) %MON advcfl_uvel_max              =   2.6577652318878E-02
(PID.TID 0000.0001) %MON advcfl_vvel_max              =   2.7075850906908E-02
(PID.TID 0000.0001) %MON advcfl_wvel_max              =   7.0056663997471E-09
(PID.TID 0000.0001) %MON advcfl_W_hf_max              =   0.0000000000000E+00
(PID.TID 0000.0001) %MON pe_b_mean                    =   1.0182320855188E-05
(PID.TID 0000.0001) %MON ke_max                       =   6.4123901990601E-03
(PID.TID 0000.0001) %MON ke_mean                      =   1.5566885246403E-03
(PID.TID 0000.0001) %MON ke_vol                       =   7.2529629296391E+15
(PID.TID 0000.0001) %MON vort_r_min                   =  -4.0016711501138E-06
(PID.TID 0000.0001) %MON vort_r_max                   =   3.0904340119536E-06
(PID.TID 0000.0001) %MON vort_a_mean                  =   1.0615000000000E-04
(PID.TID 0000.0001) %MON vort_a_sd                    =   3.6165453445062E-06
(PID.TID 0000.0001) %MON vort_p_mean                  =   1.1210870169429E-04
(PID.TID 0000.0001) %MON vort_p_sd                    =   2.1063238817082E-05
(PID.TID 0000.0001) %MON surfExpan_theta_mean         =   1.7581529683988E-20
(PID.TID 0000.0001) %MON surfExpan_salt_mean          =   2.6331688058315E-20
(PID.TID 0000.0001) // =======================================================
(PID.TID 0000.0001) // End MONITOR dynamic field statistics
(PID.TID 0000.0001) // =======================================================
 cg2d: Sum(rhs),rhsMax =   8.02120062174776E-04  1.25703374717389E-02
 cg2d: Sum(rhs),rhsMax =   8.02252392478262E-04  1.25707180612840E-02
 cg2d: Sum(rhs),rhsMax =   8.02384484296790E-04  1.25710980768746E-02
 cg2d: Sum(rhs),rhsMax =   8.02516340862258E-04  1.25714775226132E-02
 cg2d: Sum(rhs),rhsMax =   8.02647892213539E-04  1.25718563935009E-02
 cg2d: Sum(rhs),rhsMax =   8.02779270987090E-04  1.25722346949742E-02
 cg2d: Sum(rhs),rhsMax =   8.02910287238954E-04  1.25726124230915E-02
 cg2d: Sum(rhs),rhsMax =   8.03041148932492E-04  1.25729895792734E-02
 cg2d: Sum(rhs),rhsMax =   8.03171797419788E-04  1.25733661648352E-02
 cg2d: Sum(rhs),rhsMax =   8.03302236664265E-04  1.25737421787824E-02
 cg2d: Sum(rhs),rhsMax =   8.03432420904722E-04  1.25741176202535E-02
 cg2d: Sum(rhs),rhsMax =   8.03562375415259E-04  1.25744924904353E-02
 cg2d: Sum(rhs),rhsMax =   8.03692083906645E-04  1.25748667888265E-02
 cg2d: Sum(rhs),rhsMax =   8.03821532531843E-04  1.25752405156887E-02
 cg2d: Sum(rhs),rhsMax =   8.03950629949392E-04  1.25756136688117E-02
 cg2d: Sum(rhs),rhsMax =   8.04079623578976E-04  1.25759862541619E-02
 cg2d: Sum(rhs),rhsMax =   8.04208313579413E-04  1.25763582653809E-02
 cg2d: Sum(rhs),rhsMax =   8.04336795812528E-04  1.25767297091773E-02
 cg2d: Sum(rhs),rhsMax =   8.04465068410124E-04  1.25771005811003E-02
 cg2d: Sum(rhs),rhsMax =   8.04593052486962E-04  1.25774708799829E-02
 cg2d: Sum(rhs),rhsMax =   8.04720837260997E-04  1.25778406102734E-02
 cg2d: Sum(rhs),rhsMax =   8.04848341773037E-04  1.25782097681144E-02
 cg2d: Sum(rhs),rhsMax =   8.04975560446623E-04  1.25785783557579E-02
 cg2d: Sum(rhs),rhsMax =   8.05102610474338E-04  1.25789463744474E-02
 cg2d: Sum(rhs),rhsMax =   8.05229404362579E-04  1.25793138201198E-02
 cg2d: Sum(rhs),rhsMax =   8.05356012494351E-04  1.25796806986598E-02
 cg2d: Sum(rhs),rhsMax =   8.05482298383252E-04  1.25800470044704E-02
 cg2d: Sum(rhs),rhsMax =   8.05608396102700E-04  1.25804127411071E-02
 cg2d: Sum(rhs),rhsMax =   8.05734219184645E-04  1.25807779067930E-02
 cg2d: Sum(rhs),rhsMax =   8.05859780737604E-04  1.25811425028451E-02
 cg2d: Sum(rhs),rhsMax =   8.05985140374537E-04  1.25815065283698E-02
 cg2d: Sum(rhs),rhsMax =   8.06110278035465E-04  1.25818699851842E-02
 cg2d: Sum(rhs),rhsMax =   8.06235130632127E-04  1.25822328719895E-02
 cg2d: Sum(rhs),rhsMax =   8.06359767485972E-04  1.25825951906497E-02
 cg2d: Sum(rhs),rhsMax =   8.06484180078299E-04  1.25829569394766E-02
 cg2d: Sum(rhs),rhsMax =   8.06608361957589E-04  1.25833181209224E-02
 cg2d: Sum(rhs),rhsMax =   8.06732237987450E-04  1.25836787297250E-02
 cg2d: Sum(rhs),rhsMax =   8.06855955094376E-04  1.25840387716088E-02
 cg2d: Sum(rhs),rhsMax =   8.06979336964045E-04  1.25843982430414E-02
 cg2d: Sum(rhs),rhsMax =   8.07102535110961E-04  1.25847571471226E-02
 cg2d: Sum(rhs),rhsMax =   8.07225501202833E-04  1.25851154826359E-02
 cg2d: Sum(rhs),rhsMax =   8.07348200834886E-04  1.25854732501605E-02
 cg2d: Sum(rhs),rhsMax =   8.07470723046858E-04  1.25858304504669E-02
 cg2d: Sum(rhs),rhsMax =   8.07592985604851E-04  1.25861870825712E-02
 cg2d: Sum(rhs),rhsMax =   8.07715007130406E-04  1.25865431465472E-02
 cg2d: Sum(rhs),rhsMax =   8.07836795052511E-04  1.25868986423106E-02
 cg2d: Sum(rhs),rhsMax =   8.07958342440277E-04  1.25872535706574E-02
 cg2d: Sum(rhs),rhsMax =   8.08079591576171E-04  1.25876079314128E-02
 cg2d: Sum(rhs),rhsMax =   8.08200691785086E-04  1.25879617252174E-02
 cg2d: Sum(rhs),rhsMax =   8.08321357465837E-04  1.25883149510882E-02
 cg2d: Sum(rhs),rhsMax =   8.08441956173554E-04  1.25886676095582E-02
 cg2d: Sum(rhs),rhsMax =   8.08562264374521E-04  1.25890197033624E-02
 cg2d: Sum(rhs),rhsMax =   8.08682411927664E-04  1.25893712298288E-02
 cg2d: Sum(rhs),rhsMax =   8.08802248611164E-04  1.25897221914325E-02
 cg2d: Sum(rhs),rhsMax =   8.08921917284464E-04  1.25900725853772E-02
 cg2d: Sum(rhs),rhsMax =   8.09041237170684E-04  1.25904224132841E-02
 cg2d: Sum(rhs),rhsMax =   8.09160405597925E-04  1.25907716773707E-02
 cg2d: Sum(rhs),rhsMax =   8.09279286384379E-04  1.25911203763081E-02
 cg2d: Sum(rhs),rhsMax =   8.09397973588212E-04  1.25914685080846E-02
 cg2d: Sum(rhs),rhsMax =   8.09516430399955E-04  1.25918160748727E-02
 cg2d: Sum(rhs),rhsMax =   8.09634673486973E-04  1.25921630766609E-02
 cg2d: Sum(rhs),rhsMax =   8.09752662411935E-04  1.25925095135008E-02
 cg2d: Sum(rhs),rhsMax =   8.09870388384270E-04  1.25928553850063E-02
 cg2d: Sum(rhs),rhsMax =   8.09987917096845E-04  1.25932006938294E-02
 cg2d: Sum(rhs),rhsMax =   8.10105192345121E-04  1.25935454359064E-02
 cg2d: Sum(rhs),rhsMax =   8.10222258618574E-04  1.25938896173498E-02
 cg2d: Sum(rhs),rhsMax =   8.10338975275425E-04  1.25942332322756E-02
 cg2d: Sum(rhs),rhsMax =   8.10455567024039E-04  1.25945762867701E-02
 cg2d: Sum(rhs),rhsMax =   8.10571863790655E-04  1.25949187769780E-02
 cg2d: Sum(rhs),rhsMax =   8.10687994741384E-04  1.25952607024177E-02
 cg2d: Sum(rhs),rhsMax =   8.10803884366213E-04  1.25956020658287E-02
 cg2d: Sum(rhs),rhsMax =   8.10919538406417E-04  1.25959428672754E-02
(PID.TID 0000.0001)      cg2d_init_res =   3.24577839306655E-03
(PID.TID 0000.0001)      cg2d_iters(min,last) =      -1     372
(PID.TID 0000.0001)      cg2d_last_res =   8.96298866651581E-08
(PID.TID 0000.0001) // =======================================================
(PID.TID 0000.0001) // Begin MONITOR dynamic field statistics
(PID.TID 0000.0001) // =======================================================
(PID.TID 0000.0001) %MON time_tsnumber                =                 10944
(PID.TID 0000.0001) %MON time_secondsf                =   1.3132800000000E+07
(PID.TID 0000.0001) %MON dynstat_eta_max              =   1.1140341246903E-01
(PID.TID 0000.0001) %MON dynstat_eta_min              =  -2.7010467525130E-01
(PID.TID 0000.0001) %MON dynstat_eta_mean             =  -4.8615879118950E-08
(PID.TID 0000.0001) %MON dynstat_eta_sd               =   1.0009301354549E-01
(PID.TID 0000.0001) %MON dynstat_eta_del2             =   5.9524281170783E-07
(PID.TID 0000.0001) %MON dynstat_uvel_max             =   1.0115592069846E-01
(PID.TID 0000.0001) %MON dynstat_uvel_min             =  -1.1104949523901E-01
(PID.TID 0000.0001) %MON dynstat_uvel_mean            =  -1.5440530633917E-07
(PID.TID 0000.0001) %MON dynstat_uvel_sd              =   4.1398184810826E-02
(PID.TID 0000.0001) %MON dynstat_uvel_del2            =   9.2394814283121E-07
(PID.TID 0000.0001) %MON dynstat_vvel_max             =   1.1331385474316E-01
(PID.TID 0000.0001) %MON dynstat_vvel_min             =  -9.3008787349657E-02
(PID.TID 0000.0001) %MON dynstat_vvel_mean            =  -1.1187320578198E-07
(PID.TID 0000.0001) %MON dynstat_vvel_sd              =   3.7904735340389E-02
(PID.TID 0000.0001) %MON dynstat_vvel_del2            =   1.2137150653827E-06
(PID.TID 0000.0001) %MON dynstat_wvel_max             =   1.2462233612314E-08
(PID.TID 0000.0001) %MON dynstat_wvel_min             =  -1.4682533117011E-08
(PID.TID 0000.0001) %MON dynstat_wvel_mean            =   4.2510896535460E-22
(PID.TID 0000.0001) %MON dynstat_wvel_sd              =   5.1954185312295E-09
(PID.TID 0000.0001) %MON dynstat_wvel_del2            =   4.7086379787625E-14
(PID.TID 0000.0001) %MON dynstat_theta_max            =   2.0000000000000E+01
(PID.TID 0000.0001) %MON dynstat_theta_min            =   2.0000000000000E+01
(PID.TID 0000.0001) %MON dynstat_theta_mean           =   1.9999999999999E+01
(PID.TID 0000.0001) %MON dynstat_theta_sd             =   1.1972645097557E-12
(PID.TID 0000.0001) %MON dynstat_theta_del2           =   0.0000000000000E+00
(PID.TID 0000.0001) %MON dynstat_salt_max             =   3.0000000000000E+01
(PID.TID 0000.0001) %MON dynstat_salt_min             =   3.0000000000000E+01
(PID.TID 0000.0001) %MON dynstat_salt_mean            =   2.9999999999998E+01
(PID.TID 0000.0001) %MON dynstat_salt_sd              =   2.1529444893531E-12
(PID.TID 0000.0001) %MON dynstat_salt_del2            =   0.0000000000000E+00
(PID.TID 0000.0001) %MON trAdv_CFL_u_max              =   2.6650872678696E-02
(PID.TID 0000.0001) %MON trAdv_CFL_v_max              =   2.7193642400709E-02
(PID.TID 0000.0001) %MON trAdv_CFL_w_max              =   3.1933730730992E-09
(PID.TID 0000.0001) %MON advcfl_uvel_max              =   2.6651878857363E-02
(PID.TID 0000.0001) %MON advcfl_vvel_max              =   2.7195325138358E-02
(PID.TID 0000.0001) %MON advcfl_wvel_max              =   7.0476158961654E-09
(PID.TID 0000.0001) %MON advcfl_W_hf_max              =   0.0000000000000E+00
(PID.TID 0000.0001) %MON pe_b_mean                    =   1.0250411649904E-05
(PID.TID 0000.0001) %MON ke_max                       =   6.4667103164322E-03
(PID.TID 0000.0001) %MON ke_mean                      =   1.5681983566475E-03
(PID.TID 0000.0001) %MON ke_vol                       =   7.2529629296391E+15
(PID.TID 0000.0001) %MON vort_r_min                   =  -4.0103834172667E-06
(PID.TID 0000.0001) %MON vort_r_max                   =   3.1192375455277E-06
(PID.TID 0000.0001) %MON vort_a_mean                  =   1.0615000000000E-04
(PID.TID 0000.0001) %MON vort_a_sd                    =   3.6169708091952E-06
(PID.TID 0000.0001) %MON vort_p_mean                  =   1.1210870169429E-04
(PID.TID 0000.0001) %MON vort_p_sd                    =   2.1063346092920E-05
(PID.TID 0000.0001) %MON surfExpan_theta_mean         =   8.4852864153827E-21
(PID.TID 0000.0001) %MON surfExpan_salt_mean          =   1.2713379676644E-20
(PID.TID 0000.0001) // =======================================================
(PID.TID 0000.0001) // End MONITOR dynamic field statistics
(PID.TID 0000.0001) // =======================================================
 cg2d: Sum(rhs),rhsMax =   8.11034974224344E-04  1.25962831062367E-02
 cg2d: Sum(rhs),rhsMax =   8.11150179678363E-04  1.25966227831477E-02
 cg2d: Sum(rhs),rhsMax =   8.11265162336251E-04  1.25969618974526E-02
 cg2d: Sum(rhs),rhsMax =   8.11379778248265E-04  1.25973004472122E-02
 cg2d: Sum(rhs),rhsMax =   8.11494268947825E-04  1.25976384418355E-02
 cg2d: Sum(rhs),rhsMax =   8.11608517838472E-04  1.25979758712015E-02
 cg2d: Sum(rhs),rhsMax =   8.11722520462313E-04  1.25983127421602E-02
 cg2d: Sum(rhs),rhsMax =   8.11836316658167E-04  1.25986490497928E-02
 cg2d: Sum(rhs),rhsMax =   8.11949883845238E-04  1.25989847989422E-02
 cg2d: Sum(rhs),rhsMax =   8.12063258222329E-04  1.25993199867466E-02
 cg2d: Sum(rhs),rhsMax =   8.12176359842640E-04  1.25996546153073E-02
 cg2d: Sum(rhs),rhsMax =   8.12289237453877E-04  1.25999886829204E-02
 cg2d: Sum(rhs),rhsMax =   8.12401906259211E-04  1.26003221922596E-02
 cg2d: Sum(rhs),rhsMax =   8.12514297871358E-04  1.26006551424558E-02
 cg2d: Sum(rhs),rhsMax =   8.12626531771365E-04  1.26009875351668E-02
 cg2d: Sum(rhs),rhsMax =   8.12738410429418E-04  1.26013193668068E-02
 cg2d: Sum(rhs),rhsMax =   8.12850146054317E-04  1.26016506426918E-02
 cg2d: Sum(rhs),rhsMax =   8.12961651762095E-04  1.26019813569115E-02
 cg2d: Sum(rhs),rhsMax =   8.13072953585747E-04  1.26023115168294E-02
 cg2d: Sum(rhs),rhsMax =   8.13184039850572E-04  1.26026411161350E-02
 cg2d: Sum(rhs),rhsMax =   8.13294853066884E-04  1.26029701619052E-02
 cg2d: Sum(rhs),rhsMax =   8.13405487736615E-04  1.26032986481543E-02
 cg2d: Sum(rhs),rhsMax =   8.13515877091100E-04  1.26036265792916E-02
 cg2d: Sum(rhs),rhsMax =   8.13626066369982E-04  1.26039539522460E-02
 cg2d: Sum(rhs),rhsMax =   8.13736019275011E-04  1.26042807708521E-02
 cg2d: Sum(rhs),rhsMax =   8.13845783488542E-04  1.26046070326679E-02
 cg2d: Sum(rhs),rhsMax =   8.13955206722658E-04  1.26049327401085E-02
 cg2d: Sum(rhs),rhsMax =   8.14064493780626E-04  1.26052578910702E-02
 cg2d: Sum(rhs),rhsMax =   8.14173518402852E-04  1.26055824881796E-02
 cg2d: Sum(rhs),rhsMax =   8.14282377135536E-04  1.26059065296129E-02
 cg2d: Sum(rhs),rhsMax =   8.14390980520855E-04  1.26062300186919E-02
 cg2d: Sum(rhs),rhsMax =   8.14499365465106E-04  1.26065529516928E-02
 cg2d: Sum(rhs),rhsMax =   8.14607540882511E-04  1.26068753328557E-02
 cg2d: Sum(rhs),rhsMax =   8.14715478502658E-04  1.26071971580899E-02
 cg2d: Sum(rhs),rhsMax =   8.14823138090144E-04  1.26075184337313E-02
 cg2d: Sum(rhs),rhsMax =   8.14930630157704E-04  1.26078391546958E-02
 cg2d: Sum(rhs),rhsMax =   8.15037918838853E-04  1.26081593250388E-02
 cg2d: Sum(rhs),rhsMax =   8.15144999663274E-04  1.26084789405806E-02
 cg2d: Sum(rhs),rhsMax =   8.15251890165368E-04  1.26087980082143E-02
 cg2d: Sum(rhs),rhsMax =   8.15358449592761E-04  1.26091165197666E-02
 cg2d: Sum(rhs),rhsMax =   8.15464904288693E-04  1.26094344856644E-02
 cg2d: Sum(rhs),rhsMax =   8.15571088782578E-04  1.26097518940619E-02
 cg2d: Sum(rhs),rhsMax =   8.15677078466699E-04  1.26100687592392E-02
 cg2d: Sum(rhs),rhsMax =   8.15782847123785E-04  1.26103850686501E-02
 cg2d: Sum(rhs),rhsMax =   8.15888432053661E-04  1.26107008346506E-02
 cg2d: Sum(rhs),rhsMax =   8.15993737154758E-04  1.26110160453986E-02
 cg2d: Sum(rhs),rhsMax =   8.16098872860467E-04  1.26113307109699E-02
 cg2d: Sum(rhs),rhsMax =   8.16203765034372E-04  1.26116448222713E-02
 cg2d: Sum(rhs),rhsMax =   8.16308411961243E-04  1.26119583935726E-02
 cg2d: Sum(rhs),rhsMax =   8.16412904642334E-04  1.26122714098772E-02
 cg2d: Sum(rhs),rhsMax =   8.16517192902665E-04  1.26125838842295E-02
 cg2d: Sum(rhs),rhsMax =   8.16621278723289E-04  1.26128958064248E-02
 cg2d: Sum(rhs),rhsMax =   8.16725128223098E-04  1.26132071868516E-02
 cg2d: Sum(rhs),rhsMax =   8.16828686389701E-04  1.26135180153045E-02
 cg2d: Sum(rhs),rhsMax =   8.16932139180940E-04  1.26138283044094E-02
 cg2d: Sum(rhs),rhsMax =   8.17035346887441E-04  1.26141380401917E-02
 cg2d: Sum(rhs),rhsMax =   8.17138352278360E-04  1.26144472382642E-02
 cg2d: Sum(rhs),rhsMax =   8.17241158971124E-04  1.26147558833899E-02
 cg2d: Sum(rhs),rhsMax =   8.17343718993205E-04  1.26150639909838E-02
 cg2d: Sum(rhs),rhsMax =   8.17446104629515E-04  1.26153715482453E-02
 cg2d: Sum(rhs),rhsMax =   8.17548305481437E-04  1.26156785697332E-02
 cg2d: Sum(rhs),rhsMax =   8.17650284765679E-04  1.26159850395775E-02
 cg2d: Sum(rhs),rhsMax =   8.17752075894808E-04  1.26162909728180E-02
 cg2d: Sum(rhs),rhsMax =   8.17853611654743E-04  1.26165963565043E-02
 cg2d: Sum(rhs),rhsMax =   8.17954975009751E-04  1.26169012047527E-02
 cg2d: Sum(rhs),rhsMax =   8.18056097690876E-04  1.26172055045177E-02
 cg2d: Sum(rhs),rhsMax =   8.18157071399298E-04  1.26175092708263E-02
 cg2d: Sum(rhs),rhsMax =   8.18257724896253E-04  1.26178124894712E-02
 cg2d: Sum(rhs),rhsMax =   8.18358203779117E-04  1.26181151693023E-02
 cg2d: Sum(rhs),rhsMax =   8.18458510577940E-04  1.26184173069540E-02
 cg2d: Sum(rhs),rhsMax =   8.18558635195761E-04  1.26187189114772E-02
 cg2d: Sum(rhs),rhsMax =   8.18658586737922E-04  1.26190199689949E-02
(PID.TID 0000.0001)      cg2d_init_res =   3.22992496469961E-03
(PID.TID 0000.0001)      cg2d_iters(min,last) =      -1     372
(PID.TID 0000.0001)      cg2d_last_res =   8.98124384151600E-08
(PID.TID 0000.0001) // =======================================================
(PID.TID 0000.0001) // Begin MONITOR dynamic field statistics
(PID.TID 0000.0001) // =======================================================
(PID.TID 0000.0001) %MON time_tsnumber                =                 11016
(PID.TID 0000.0001) %MON time_secondsf                =   1.3219200000000E+07
(PID.TID 0000.0001) %MON dynstat_eta_max              =   1.1204794743746E-01
(PID.TID 0000.0001) %MON dynstat_eta_min              =  -2.7125121925513E-01
(PID.TID 0000.0001) %MON dynstat_eta_mean             =  -4.9168600426808E-08
(PID.TID 0000.0001) %MON dynstat_eta_sd               =   1.0042018154427E-01
(PID.TID 0000.0001) %MON dynstat_eta_del2             =   5.9767537446658E-07
(PID.TID 0000.0001) %MON dynstat_uvel_max             =   1.0153766726462E-01
(PID.TID 0000.0001) %MON dynstat_uvel_min             =  -1.1134391499337E-01
(PID.TID 0000.0001) %MON dynstat_uvel_mean            =  -1.5298147358703E-07
(PID.TID 0000.0001) %MON dynstat_uvel_sd              =   4.1537954387091E-02
(PID.TID 0000.0001) %MON dynstat_uvel_del2            =   9.2541920485786E-07
(PID.TID 0000.0001) %MON dynstat_vvel_max             =   1.1382585822259E-01
(PID.TID 0000.0001) %MON dynstat_vvel_min             =  -9.3322214304419E-02
(PID.TID 0000.0001) %MON dynstat_vvel_mean            =  -8.3902160027146E-08
(PID.TID 0000.0001) %MON dynstat_vvel_sd              =   3.8055555125874E-02
(PID.TID 0000.0001) %MON dynstat_vvel_del2            =   1.2209968285027E-06
(PID.TID 0000.0001) %MON dynstat_wvel_max             =   1.2307717772201E-08
(PID.TID 0000.0001) %MON dynstat_wvel_min             =  -1.4754902631976E-08
(PID.TID 0000.0001) %MON dynstat_wvel_mean            =   4.2328681159602E-21
(PID.TID 0000.0001) %MON dynstat_wvel_sd              =   5.1179051864322E-09
(PID.TID 0000.0001) %MON dynstat_wvel_del2            =   4.7042877270928E-14
(PID.TID 0000.0001) %MON dynstat_theta_max            =   2.0000000000000E+01
(PID.TID 0000.0001) %MON dynstat_theta_min            =   2.0000000000000E+01
(PID.TID 0000.0001) %MON dynstat_theta_mean           =   1.9999999999999E+01
(PID.TID 0000.0001) %MON dynstat_theta_sd             =   1.1972645097557E-12
(PID.TID 0000.0001) %MON dynstat_theta_del2           =   0.0000000000000E+00
(PID.TID 0000.0001) %MON dynstat_salt_max             =   3.0000000000000E+01
(PID.TID 0000.0001) %MON dynstat_salt_min             =   3.0000000000000E+01
(PID.TID 0000.0001) %MON dynstat_salt_mean            =   2.9999999999998E+01
(PID.TID 0000.0001) %MON dynstat_salt_sd              =   2.1529444893531E-12
(PID.TID 0000.0001) %MON dynstat_salt_del2            =   0.0000000000000E+00
(PID.TID 0000.0001) %MON trAdv_CFL_u_max              =   2.6721581882112E-02
(PID.TID 0000.0001) %MON trAdv_CFL_v_max              =   2.7316476235827E-02
(PID.TID 0000.0001) %MON trAdv_CFL_w_max              =   3.1158129663878E-09
(PID.TID 0000.0001) %MON advcfl_uvel_max              =   2.6722539598408E-02
(PID.TID 0000.0001) %MON advcfl_vvel_max              =   2.7318205973423E-02
(PID.TID 0000.0001) %MON advcfl_wvel_max              =   7.0823532633483E-09
(PID.TID 0000.0001) %MON advcfl_W_hf_max              =   0.0000000000000E+00
(PID.TID 0000.0001) %MON pe_b_mean                    =   1.0317530970488E-05
(PID.TID 0000.0001) %MON ke_max                       =   6.5229285272837E-03
(PID.TID 0000.0001) %MON ke_mean                      =   1.5796706140144E-03
(PID.TID 0000.0001) %MON ke_vol                       =   7.2529629296391E+15
(PID.TID 0000.0001) %MON vort_r_min                   =  -4.0181351749204E-06
(PID.TID 0000.0001) %MON vort_r_max                   =   3.1475081637371E-06
(PID.TID 0000.0001) %MON vort_a_mean                  =   1.0615000000000E-04
(PID.TID 0000.0001) %MON vort_a_sd                    =   3.6173889470180E-06
(PID.TID 0000.0001) %MON vort_p_mean                  =   1.1210870169429E-04
(PID.TID 0000.0001) %MON vort_p_sd                    =   2.1063465929190E-05
(PID.TID 0000.0001) %MON surfExpan_theta_mean         =   8.4648685854571E-20
(PID.TID 0000.0001) %MON surfExpan_salt_mean          =   1.2702423069147E-19
(PID.TID 0000.0001) // =======================================================
(PID.TID 0000.0001) // End MONITOR dynamic field statistics
(PID.TID 0000.0001) // =======================================================
 cg2d: Sum(rhs),rhsMax =   8.18758329990925E-04  1.26193204940495E-02
 cg2d: Sum(rhs),rhsMax =   8.18857850103003E-04  1.26196204745151E-02
 cg2d: Sum(rhs),rhsMax =   8.18957148749697E-04  1.26199199212119E-02
 cg2d: Sum(rhs),rhsMax =   8.19056284012040E-04  1.26202188249002E-02
 cg2d: Sum(rhs),rhsMax =   8.19155175488315E-04  1.26205171980080E-02
 cg2d: Sum(rhs),rhsMax =   8.19253855713459E-04  1.26208150290375E-02
 cg2d: Sum(rhs),rhsMax =   8.19352397796120E-04  1.26211123276851E-02
 cg2d: Sum(rhs),rhsMax =   8.19450727119867E-04  1.26214090845191E-02
 cg2d: Sum(rhs),rhsMax =   8.19548876099099E-04  1.26217053120396E-02
 cg2d: Sum(rhs),rhsMax =   8.19646816934831E-04  1.26220009983934E-02
 cg2d: Sum(rhs),rhsMax =   8.19744560650790E-04  1.26222961562075E-02
 cg2d: Sum(rhs),rhsMax =   8.19842112339035E-04  1.26225907730134E-02
 cg2d: Sum(rhs),rhsMax =   8.19939492032636E-04  1.26228848631656E-02
 cg2d: Sum(rhs),rhsMax =   8.20036650476051E-04  1.26231784128943E-02
 cg2d: Sum(rhs),rhsMax =   8.20133630853375E-04  1.26234714362351E-02
 cg2d: Sum(rhs),rhsMax =   8.20230419341116E-04  1.26237639203148E-02
 cg2d: Sum(rhs),rhsMax =   8.20326996915794E-04  1.26240558789081E-02
 cg2d: Sum(rhs),rhsMax =   8.20423351906904E-04  1.26243472991832E-02
 cg2d: Sum(rhs),rhsMax =   8.20519535373597E-04  1.26246381944869E-02
 cg2d: Sum(rhs),rhsMax =   8.20615565128895E-04  1.26249285529750E-02
 cg2d: Sum(rhs),rhsMax =   8.20711383373418E-04  1.26252183873476E-02
 cg2d: Sum(rhs),rhsMax =   8.20807021496619E-04  1.26255076865268E-02
 cg2d: Sum(rhs),rhsMax =   8.20902449398269E-04  1.26257964614390E-02
 cg2d: Sum(rhs),rhsMax =   8.20997703466610E-04  1.26260847028495E-02
 cg2d: Sum(rhs),rhsMax =   8.21092682883341E-04  1.26263724200016E-02
 cg2d: Sum(rhs),rhsMax =   8.21187552883464E-04  1.26266596050014E-02
 cg2d: Sum(rhs),rhsMax =   8.21282142612836E-04  1.26269462645413E-02
 cg2d: Sum(rhs),rhsMax =   8.21376658708293E-04  1.26272323975571E-02
 cg2d: Sum(rhs),rhsMax =   8.21470938005690E-04  1.26275180051661E-02
 cg2d: Sum(rhs),rhsMax =   8.21565078394931E-04  1.26278030839497E-02
 cg2d: Sum(rhs),rhsMax =   8.21659015837577E-04  1.26280876401752E-02
 cg2d: Sum(rhs),rhsMax =   8.21752768416764E-04  1.26283716683328E-02
 cg2d: Sum(rhs),rhsMax =   8.21846316676497E-04  1.26286551754292E-02
 cg2d: Sum(rhs),rhsMax =   8.21939703246979E-04  1.26289381541963E-02
 cg2d: Sum(rhs),rhsMax =   8.22032912365404E-04  1.26292206148177E-02
 cg2d: Sum(rhs),rhsMax =   8.22125928740145E-04  1.26295025468164E-02
 cg2d: Sum(rhs),rhsMax =   8.22218753225096E-04  1.26297839601213E-02
 cg2d: Sum(rhs),rhsMax =   8.22311402762088E-04  1.26300648458267E-02
 cg2d: Sum(rhs),rhsMax =   8.22403894929512E-04  1.26303452186862E-02
 cg2d: Sum(rhs),rhsMax =   8.22496174440409E-04  1.26306250630985E-02
 cg2d: Sum(rhs),rhsMax =   8.22588292886953E-04  1.26309043922057E-02
 cg2d: Sum(rhs),rhsMax =   8.22680225949972E-04  1.26311831951003E-02
 cg2d: Sum(rhs),rhsMax =   8.22771978622993E-04  1.26314614867802E-02
 cg2d: Sum(rhs),rhsMax =   8.22863557443610E-04  1.26317392521917E-02
 cg2d: Sum(rhs),rhsMax =   8.22954931396879E-04  1.26320165019525E-02
 cg2d: Sum(rhs),rhsMax =   8.23046148393007E-04  1.26322932311531E-02
 cg2d: Sum(rhs),rhsMax =   8.23137218610083E-04  1.26325694472212E-02
 cg2d: Sum(rhs),rhsMax =   8.23228091261542E-04  1.26328451429495E-02
 cg2d: Sum(rhs),rhsMax =   8.23318791019200E-04  1.26331203258993E-02
 cg2d: Sum(rhs),rhsMax =   8.23409318836902E-04  1.26333949886683E-02
 cg2d: Sum(rhs),rhsMax =   8.23499666336734E-04  1.26336691396725E-02
 cg2d: Sum(rhs),rhsMax =   8.23589846808569E-04  1.26339427722803E-02
 cg2d: Sum(rhs),rhsMax =   8.23679854716522E-04  1.26342158943034E-02
 cg2d: Sum(rhs),rhsMax =   8.23769640975176E-04  1.26344884983589E-02
 cg2d: Sum(rhs),rhsMax =   8.23859305566098E-04  1.26347605933041E-02
 cg2d: Sum(rhs),rhsMax =   8.23948739456395E-04  1.26350321727344E-02
 cg2d: Sum(rhs),rhsMax =   8.24038029211955E-04  1.26353032404180E-02
 cg2d: Sum(rhs),rhsMax =   8.24127153505654E-04  1.26355737973020E-02
 cg2d: Sum(rhs),rhsMax =   8.24216130405252E-04  1.26358438460134E-02
 cg2d: Sum(rhs),rhsMax =   8.24304946683986E-04  1.26361133797738E-02
 cg2d: Sum(rhs),rhsMax =   8.24393564867519E-04  1.26363824044890E-02
 cg2d: Sum(rhs),rhsMax =   8.24482034288277E-04  1.26366509190994E-02
 cg2d: Sum(rhs),rhsMax =   8.24570350602643E-04  1.26369189265959E-02
 cg2d: Sum(rhs),rhsMax =   8.24658506350950E-04  1.26371864254097E-02
 cg2d: Sum(rhs),rhsMax =   8.24746467773087E-04  1.26374534161662E-02
 cg2d: Sum(rhs),rhsMax =   8.24834275576319E-04  1.26377199008868E-02
 cg2d: Sum(rhs),rhsMax =   8.24921882298657E-04  1.26379858801662E-02
 cg2d: Sum(rhs),rhsMax =   8.25009314241785E-04  1.26382513498902E-02
 cg2d: Sum(rhs),rhsMax =   8.25096647028368E-04  1.26385163148348E-02
 cg2d: Sum(rhs),rhsMax =   8.25183765870610E-04  1.26387807758147E-02
 cg2d: Sum(rhs),rhsMax =   8.25270692381266E-04  1.26390447316536E-02
 cg2d: Sum(rhs),rhsMax =   8.25357498349107E-04  1.26393081853096E-02
(PID.TID 0000.0001)      cg2d_init_res =   3.20780113523514E-03
(PID.TID 0000.0001)      cg2d_iters(min,last) =      -1     372
(PID.TID 0000.0001)      cg2d_last_res =   8.91241081757915E-08
(PID.TID 0000.0001) // =======================================================
(PID.TID 0000.0001) // Begin MONITOR dynamic field statistics
(PID.TID 0000.0001) // =======================================================
(PID.TID 0000.0001) %MON time_tsnumber                =                 11088
(PID.TID 0000.0001) %MON time_secondsf                =   1.3305600000000E+07
(PID.TID 0000.0001) %MON dynstat_eta_max              =   1.1269647448781E-01
(PID.TID 0000.0001) %MON dynstat_eta_min              =  -2.7239139146558E-01
(PID.TID 0000.0001) %MON dynstat_eta_mean             =  -4.9649648754712E-08
(PID.TID 0000.0001) %MON dynstat_eta_sd               =   1.0074072453787E-01
(PID.TID 0000.0001) %MON dynstat_eta_del2             =   6.0006063594982E-07
(PID.TID 0000.0001) %MON dynstat_uvel_max             =   1.0190263766332E-01
(PID.TID 0000.0001) %MON dynstat_uvel_min             =  -1.1162571460223E-01
(PID.TID 0000.0001) %MON dynstat_uvel_mean            =  -1.4552014687004E-07
(PID.TID 0000.0001) %MON dynstat_uvel_sd              =   4.1667522630051E-02
(PID.TID 0000.0001) %MON dynstat_uvel_del2            =   9.2663958279119E-07
(PID.TID 0000.0001) %MON dynstat_vvel_max             =   1.1435164589980E-01
(PID.TID 0000.0001) %MON dynstat_vvel_min             =  -9.3658430794556E-02
(PID.TID 0000.0001) %MON dynstat_vvel_mean            =  -5.6786945025607E-08
(PID.TID 0000.0001) %MON dynstat_vvel_sd              =   3.8214816423834E-02
(PID.TID 0000.0001) %MON dynstat_vvel_del2            =   1.2278612550751E-06
(PID.TID 0000.0001) %MON dynstat_wvel_max             =   1.2138303713873E-08
(PID.TID 0000.0001) %MON dynstat_wvel_min             =  -1.4794169995002E-08
(PID.TID 0000.0001) %MON dynstat_wvel_mean            =   3.6305085245636E-21
(PID.TID 0000.0001) %MON dynstat_wvel_sd              =   5.0398181157508E-09
(PID.TID 0000.0001) %MON dynstat_wvel_del2            =   4.6908922512733E-14
(PID.TID 0000.0001) %MON dynstat_theta_max            =   2.0000000000000E+01
(PID.TID 0000.0001) %MON dynstat_theta_min            =   2.0000000000000E+01
(PID.TID 0000.0001) %MON dynstat_theta_mean           =   1.9999999999999E+01
(PID.TID 0000.0001) %MON dynstat_theta_sd             =   1.1972645097557E-12
(PID.TID 0000.0001) %MON dynstat_theta_del2           =   0.0000000000000E+00
(PID.TID 0000.0001) %MON dynstat_salt_max             =   3.0000000000000E+01
(PID.TID 0000.0001) %MON dynstat_salt_min             =   3.0000000000000E+01
(PID.TID 0000.0001) %MON dynstat_salt_mean            =   2.9999999999998E+01
(PID.TID 0000.0001) %MON dynstat_salt_sd              =   2.1529444893531E-12
(PID.TID 0000.0001) %MON dynstat_salt_del2            =   0.0000000000000E+00
(PID.TID 0000.0001) %MON trAdv_CFL_u_max              =   2.6789235411892E-02
(PID.TID 0000.0001) %MON trAdv_CFL_v_max              =   2.7442620692371E-02
(PID.TID 0000.0001) %MON trAdv_CFL_w_max              =   3.0611747288394E-09
(PID.TID 0000.0001) %MON advcfl_uvel_max              =   2.6790171504534E-02
(PID.TID 0000.0001) %MON advcfl_vvel_max              =   2.7444395015953E-02
(PID.TID 0000.0001) %MON advcfl_wvel_max              =   7.1012015976012E-09
(PID.TID 0000.0001) %MON advcfl_W_hf_max              =   0.0000000000000E+00
(PID.TID 0000.0001) %MON pe_b_mean                    =   1.0383503577844E-05
(PID.TID 0000.0001) %MON ke_max                       =   6.5809386973942E-03
(PID.TID 0000.0001) %MON ke_mean                      =   1.5910828637620E-03
(PID.TID 0000.0001) %MON ke_vol                       =   7.2529629296391E+15
(PID.TID 0000.0001) %MON vort_r_min                   =  -4.0249516762788E-06
(PID.TID 0000.0001) %MON vort_r_max                   =   3.1742636265005E-06
(PID.TID 0000.0001) %MON vort_a_mean                  =   1.0615000000000E-04
(PID.TID 0000.0001) %MON vort_a_sd                    =   3.6177978356325E-06
(PID.TID 0000.0001) %MON vort_p_mean                  =   1.1210870169429E-04
(PID.TID 0000.0001) %MON vort_p_sd                    =   2.1063596534643E-05
(PID.TID 0000.0001) %MON surfExpan_theta_mean         =   7.2749948191485E-20
(PID.TID 0000.0001) %MON surfExpan_salt_mean          =   1.0910795830837E-19
(PID.TID 0000.0001) // =======================================================
(PID.TID 0000.0001) // End MONITOR dynamic field statistics
(PID.TID 0000.0001) // =======================================================
 cg2d: Sum(rhs),rhsMax =   8.25444152692095E-04  1.26395711358219E-02
 cg2d: Sum(rhs),rhsMax =   8.25530649039142E-04  1.26398335833802E-02
 cg2d: Sum(rhs),rhsMax =   8.25616944475673E-04  1.26400955291513E-02
 cg2d: Sum(rhs),rhsMax =   8.25703117576787E-04  1.26403569726911E-02
 cg2d: Sum(rhs),rhsMax =   8.25789093380202E-04  1.26406179140737E-02
 cg2d: Sum(rhs),rhsMax =   8.25874925054353E-04  1.26408783577459E-02
 cg2d: Sum(rhs),rhsMax =   8.25960604466101E-04  1.26411383001719E-02
 cg2d: Sum(rhs),rhsMax =   8.26046128745778E-04  1.26413977449355E-02
 cg2d: Sum(rhs),rhsMax =   8.26131451583549E-04  1.26416566897269E-02
 cg2d: Sum(rhs),rhsMax =   8.26216680986558E-04  1.26419151383410E-02
 cg2d: Sum(rhs),rhsMax =   8.26301625814468E-04  1.26421730876003E-02
 cg2d: Sum(rhs),rhsMax =   8.26386486084131E-04  1.26424305427251E-02
 cg2d: Sum(rhs),rhsMax =   8.26471193816097E-04  1.26426874998757E-02
 cg2d: Sum(rhs),rhsMax =   8.26555771531476E-04  1.26429439629170E-02
 cg2d: Sum(rhs),rhsMax =   8.26640155191698E-04  1.26431999296909E-02
 cg2d: Sum(rhs),rhsMax =   8.26724435814349E-04  1.26434554035160E-02
 cg2d: Sum(rhs),rhsMax =   8.26808522816904E-04  1.26437103826002E-02
 cg2d: Sum(rhs),rhsMax =   8.26892485473431E-04  1.26439648697247E-02
 cg2d: Sum(rhs),rhsMax =   8.26976279569512E-04  1.26442188636476E-02
 cg2d: Sum(rhs),rhsMax =   8.27059942243500E-04  1.26444723666281E-02
 cg2d: Sum(rhs),rhsMax =   8.27143408510851E-04  1.26447253776489E-02
 cg2d: Sum(rhs),rhsMax =   8.27226718273115E-04  1.26449778988246E-02
 cg2d: Sum(rhs),rhsMax =   8.27309852313694E-04  1.26452299282955E-02
 cg2d: Sum(rhs),rhsMax =   8.27392886031774E-04  1.26454814717227E-02
 cg2d: Sum(rhs),rhsMax =   8.27475739186541E-04  1.26457325252627E-02
 cg2d: Sum(rhs),rhsMax =   8.27558405735113E-04  1.26459830885195E-02
 cg2d: Sum(rhs),rhsMax =   8.27640964698641E-04  1.26462331681506E-02
 cg2d: Sum(rhs),rhsMax =   8.27723383412440E-04  1.26464827585381E-02
 cg2d: Sum(rhs),rhsMax =   8.27805660448832E-04  1.26467318637742E-02
 cg2d: Sum(rhs),rhsMax =   8.27887724193142E-04  1.26469804800235E-02
 cg2d: Sum(rhs),rhsMax =   8.27969700931496E-04  1.26472286168501E-02
 cg2d: Sum(rhs),rhsMax =   8.28051500134418E-04  1.26474762664144E-02
 cg2d: Sum(rhs),rhsMax =   8.28133180416853E-04  1.26477234343699E-02
 cg2d: Sum(rhs),rhsMax =   8.28214707184072E-04  1.26479701172709E-02
 cg2d: Sum(rhs),rhsMax =   8.28296033046624E-04  1.26482163175537E-02
 cg2d: Sum(rhs),rhsMax =   8.28377247956306E-04  1.26484620382362E-02
 cg2d: Sum(rhs),rhsMax =   8.28458333281054E-04  1.26487072786322E-02
 cg2d: Sum(rhs),rhsMax =   8.28539256744931E-04  1.26489520369143E-02
 cg2d: Sum(rhs),rhsMax =   8.28620048112592E-04  1.26491963164384E-02
 cg2d: Sum(rhs),rhsMax =   8.28700690106952E-04  1.26494401158823E-02
 cg2d: Sum(rhs),rhsMax =   8.28781167938317E-04  1.26496834385647E-02
 cg2d: Sum(rhs),rhsMax =   8.28861488422662E-04  1.26499262821571E-02
 cg2d: Sum(rhs),rhsMax =   8.28941651370874E-04  1.26501686485813E-02
 cg2d: Sum(rhs),rhsMax =   8.29021699845877E-04  1.26504105391054E-02
 cg2d: Sum(rhs),rhsMax =   8.29101621714963E-04  1.26506519550804E-02
 cg2d: Sum(rhs),rhsMax =   8.29181398136506E-04  1.26508928953197E-02
 cg2d: Sum(rhs),rhsMax =   8.29274694231937E-04  1.26511333628086E-02
 cg2d: Sum(rhs),rhsMax =   8.29367790386953E-04  1.26513733527576E-02
 cg2d: Sum(rhs),rhsMax =   8.29460838168037E-04  1.26516128725408E-02
 cg2d: Sum(rhs),rhsMax =   8.29553660880110E-04  1.26518519197553E-02
 cg2d: Sum(rhs),rhsMax =   8.29646373238888E-04  1.26520904952106E-02
 cg2d: Sum(rhs),rhsMax =   8.29738841789714E-04  1.26523285999724E-02
 cg2d: Sum(rhs),rhsMax =   8.29831197459366E-04  1.26525662336821E-02
 cg2d: Sum(rhs),rhsMax =   8.29923277209529E-04  1.26528034014683E-02
 cg2d: Sum(rhs),rhsMax =   8.30015256677339E-04  1.26530400938653E-02
 cg2d: Sum(rhs),rhsMax =   8.30107078739390E-04  1.26532763225665E-02
 cg2d: Sum(rhs),rhsMax =   8.30198767640025E-04  1.26535120814712E-02
 cg2d: Sum(rhs),rhsMax =   8.30290297786907E-04  1.26537473764229E-02
 cg2d: Sum(rhs),rhsMax =   8.30381597672214E-04  1.26539822041621E-02
 cg2d: Sum(rhs),rhsMax =   8.30472789714119E-04  1.26542165648950E-02
 cg2d: Sum(rhs),rhsMax =   8.30563721165198E-04  1.26544504596869E-02
 cg2d: Sum(rhs),rhsMax =   8.30654564729813E-04  1.26546838955645E-02
 cg2d: Sum(rhs),rhsMax =   8.30745198155439E-04  1.26549168644363E-02
 cg2d: Sum(rhs),rhsMax =   8.30835695144439E-04  1.26551493726576E-02
 cg2d: Sum(rhs),rhsMax =   8.30926027519175E-04  1.26553814164293E-02
 cg2d: Sum(rhs),rhsMax =   8.31016179942311E-04  1.26556130020612E-02
 cg2d: Sum(rhs),rhsMax =   8.31106193428202E-04  1.26558441258575E-02
 cg2d: Sum(rhs),rhsMax =   8.31196004285217E-04  1.26560747902415E-02
 cg2d: Sum(rhs),rhsMax =   8.31285637305380E-04  1.26563049928072E-02
 cg2d: Sum(rhs),rhsMax =   8.31375126465925E-04  1.26565347410652E-02
 cg2d: Sum(rhs),rhsMax =   8.31464446166155E-04  1.26567640305702E-02
 cg2d: Sum(rhs),rhsMax =   8.31553629270079E-04  1.26569928631256E-02
(PID.TID 0000.0001)      cg2d_init_res =   3.17903262553502E-03
(PID.TID 0000.0001)      cg2d_iters(min,last) =      -1     371
(PID.TID 0000.0001)      cg2d_last_res =   9.88321441598358E-08
(PID.TID 0000.0001) // =======================================================
(PID.TID 0000.0001) // Begin MONITOR dynamic field statistics
(PID.TID 0000.0001) // =======================================================
(PID.TID 0000.0001) %MON time_tsnumber                =                 11160
(PID.TID 0000.0001) %MON time_secondsf                =   1.3392000000000E+07
(PID.TID 0000.0001) %MON dynstat_eta_max              =   1.1333758910523E-01
(PID.TID 0000.0001) %MON dynstat_eta_min              =  -2.7351956891319E-01
(PID.TID 0000.0001) %MON dynstat_eta_mean             =  -5.0092333466378E-08
(PID.TID 0000.0001) %MON dynstat_eta_sd               =   1.0105402292940E-01
(PID.TID 0000.0001) %MON dynstat_eta_del2             =   6.0238902912014E-07
(PID.TID 0000.0001) %MON dynstat_uvel_max             =   1.0225505776950E-01
(PID.TID 0000.0001) %MON dynstat_uvel_min             =  -1.1190018501675E-01
(PID.TID 0000.0001) %MON dynstat_uvel_mean            =  -1.3251806600809E-07
(PID.TID 0000.0001) %MON dynstat_uvel_sd              =   4.1787531641997E-02
(PID.TID 0000.0001) %MON dynstat_uvel_del2            =   9.2767829715227E-07
(PID.TID 0000.0001) %MON dynstat_vvel_max             =   1.1489019434443E-01
(PID.TID 0000.0001) %MON dynstat_vvel_min             =  -9.4022054613170E-02
(PID.TID 0000.0001) %MON dynstat_vvel_mean            =  -3.1503418992647E-08
(PID.TID 0000.0001) %MON dynstat_vvel_sd              =   3.8381259292687E-02
(PID.TID 0000.0001) %MON dynstat_vvel_del2            =   1.2341388078535E-06
(PID.TID 0000.0001) %MON dynstat_wvel_max             =   1.1810246966779E-08
(PID.TID 0000.0001) %MON dynstat_wvel_min             =  -1.4784920006059E-08
(PID.TID 0000.0001) %MON dynstat_wvel_mean            =   8.1204380679924E-21
(PID.TID 0000.0001) %MON dynstat_wvel_sd              =   4.9638251740452E-09
(PID.TID 0000.0001) %MON dynstat_wvel_del2            =   4.6973903525874E-14
(PID.TID 0000.0001) %MON dynstat_theta_max            =   2.0000000000000E+01
(PID.TID 0000.0001) %MON dynstat_theta_min            =   2.0000000000000E+01
(PID.TID 0000.0001) %MON dynstat_theta_mean           =   1.9999999999999E+01
(PID.TID 0000.0001) %MON dynstat_theta_sd             =   1.1972645097557E-12
(PID.TID 0000.0001) %MON dynstat_theta_del2           =   0.0000000000000E+00
(PID.TID 0000.0001) %MON dynstat_salt_max             =   3.0000000000000E+01
(PID.TID 0000.0001) %MON dynstat_salt_min             =   3.0000000000000E+01
(PID.TID 0000.0001) %MON dynstat_salt_mean            =   2.9999999999998E+01
(PID.TID 0000.0001) %MON dynstat_salt_sd              =   2.1529444893531E-12
(PID.TID 0000.0001) %MON dynstat_salt_del2            =   0.0000000000000E+00
(PID.TID 0000.0001) %MON trAdv_CFL_u_max              =   2.6855149371909E-02
(PID.TID 0000.0001) %MON trAdv_CFL_v_max              =   2.7571832070253E-02
(PID.TID 0000.0001) %MON trAdv_CFL_w_max              =   2.9713333792150E-09
(PID.TID 0000.0001) %MON advcfl_uvel_max              =   2.6856044404021E-02
(PID.TID 0000.0001) %MON advcfl_vvel_max              =   2.7573646642662E-02
(PID.TID 0000.0001) %MON advcfl_wvel_max              =   7.0967616029084E-09
(PID.TID 0000.0001) %MON advcfl_W_hf_max              =   0.0000000000000E+00
(PID.TID 0000.0001) %MON pe_b_mean                    =   1.0448188312330E-05
(PID.TID 0000.0001) %MON ke_max                       =   6.6407169532217E-03
(PID.TID 0000.0001) %MON ke_mean                      =   1.6024137431247E-03
(PID.TID 0000.0001) %MON ke_vol                       =   7.2529629296391E+15
(PID.TID 0000.0001) %MON vort_r_min                   =  -4.0308806460175E-06
(PID.TID 0000.0001) %MON vort_r_max                   =   3.1988848174842E-06
(PID.TID 0000.0001) %MON vort_a_mean                  =   1.0615000000000E-04
(PID.TID 0000.0001) %MON vort_a_sd                    =   3.6181958135517E-06
(PID.TID 0000.0001) %MON vort_p_mean                  =   1.1210870169429E-04
(PID.TID 0000.0001) %MON vort_p_sd                    =   2.1063735699793E-05
(PID.TID 0000.0001) %MON surfExpan_theta_mean         =   1.6244143507273E-19
(PID.TID 0000.0001) %MON surfExpan_salt_mean          =   2.4366351461183E-19
(PID.TID 0000.0001) // =======================================================
(PID.TID 0000.0001) // End MONITOR dynamic field statistics
(PID.TID 0000.0001) // =======================================================
 cg2d: Sum(rhs),rhsMax =   8.31642626662762E-04  1.26572212352204E-02
 cg2d: Sum(rhs),rhsMax =   8.31731492441234E-04  1.26574491582514E-02
 cg2d: Sum(rhs),rhsMax =   8.31820164898453E-04  1.26576766225098E-02
 cg2d: Sum(rhs),rhsMax =   8.31908685790059E-04  1.26579036357419E-02
 cg2d: Sum(rhs),rhsMax =   8.31996981469225E-04  1.26581301909321E-02
 cg2d: Sum(rhs),rhsMax =   8.32085172920443E-04  1.26583563006497E-02
 cg2d: Sum(rhs),rhsMax =   8.32173184163577E-04  1.26585819533620E-02
 cg2d: Sum(rhs),rhsMax =   8.32261047429441E-04  1.26588071587553E-02
 cg2d: Sum(rhs),rhsMax =   8.32348731674230E-04  1.26590319088205E-02
 cg2d: Sum(rhs),rhsMax =   8.32436294850950E-04  1.26592562135377E-02
 cg2d: Sum(rhs),rhsMax =   8.32523677739625E-04  1.26594800657309E-02
 cg2d: Sum(rhs),rhsMax =   8.32610889002309E-04  1.26597034742090E-02
 cg2d: Sum(rhs),rhsMax =   8.32697899949981E-04  1.26599264337441E-02
 cg2d: Sum(rhs),rhsMax =   8.32784773559593E-04  1.26601489458601E-02
 cg2d: Sum(rhs),rhsMax =   8.32871465961706E-04  1.26603710078477E-02
 cg2d: Sum(rhs),rhsMax =   8.32958042219539E-04  1.26605926317073E-02
 cg2d: Sum(rhs),rhsMax =   8.33044433783691E-04  1.26608138063438E-02
 cg2d: Sum(rhs),rhsMax =   8.33130667023611E-04  1.26610345411795E-02
 cg2d: Sum(rhs),rhsMax =   8.33216697349244E-04  1.26612548293915E-02
 cg2d: Sum(rhs),rhsMax =   8.33302589416404E-04  1.26614746796934E-02
 cg2d: Sum(rhs),rhsMax =   8.33388331967512E-04  1.26616940828881E-02
 cg2d: Sum(rhs),rhsMax =   8.33473927314043E-04  1.26619130511846E-02
 cg2d: Sum(rhs),rhsMax =   8.33559304123212E-04  1.26621315741736E-02
 cg2d: Sum(rhs),rhsMax =   8.33644577732381E-04  1.26623496646482E-02
 cg2d: Sum(rhs),rhsMax =   8.33729659634455E-04  1.26625673117230E-02
 cg2d: Sum(rhs),rhsMax =   8.33814577470600E-04  1.26627845244737E-02
 cg2d: Sum(rhs),rhsMax =   8.33899377244037E-04  1.26630012961253E-02
 cg2d: Sum(rhs),rhsMax =   8.33984007199053E-04  1.26632176368624E-02
 cg2d: Sum(rhs),rhsMax =   8.34068456511371E-04  1.26634335377344E-02
 cg2d: Sum(rhs),rhsMax =   8.34152723858918E-04  1.26636490068775E-02
 cg2d: Sum(rhs),rhsMax =   8.34236827638245E-04  1.26638640379719E-02
 cg2d: Sum(rhs),rhsMax =   8.34320760416511E-04  1.26640786441158E-02
 cg2d: Sum(rhs),rhsMax =   8.34404544087291E-04  1.26642928116447E-02
 cg2d: Sum(rhs),rhsMax =   8.34488168691066E-04  1.26645065506514E-02
 cg2d: Sum(rhs),rhsMax =   8.34571644265434E-04  1.26647198556622E-02
 cg2d: Sum(rhs),rhsMax =   8.34654955152172E-04  1.26649327362831E-02
 cg2d: Sum(rhs),rhsMax =   8.34738094410363E-04  1.26651451824895E-02
 cg2d: Sum(rhs),rhsMax =   8.34821082966460E-04  1.26653572036513E-02
 cg2d: Sum(rhs),rhsMax =   8.34903862301064E-04  1.26655687933444E-02
 cg2d: Sum(rhs),rhsMax =   8.34986522112304E-04  1.26657799643363E-02
 cg2d: Sum(rhs),rhsMax =   8.35069027457076E-04  1.26659907020908E-02
 cg2d: Sum(rhs),rhsMax =   8.35151374922620E-04  1.26662010189962E-02
 cg2d: Sum(rhs),rhsMax =   8.35233545868650E-04  1.26664109063258E-02
 cg2d: Sum(rhs),rhsMax =   8.35315574596457E-04  1.26666203760076E-02
 cg2d: Sum(rhs),rhsMax =   8.35397395546151E-04  1.26668294181728E-02
 cg2d: Sum(rhs),rhsMax =   8.35479082302644E-04  1.26670380425041E-02
 cg2d: Sum(rhs),rhsMax =   8.35560586915482E-04  1.26672462407459E-02
 cg2d: Sum(rhs),rhsMax =   8.35641959728801E-04  1.26674540244350E-02
 cg2d: Sum(rhs),rhsMax =   8.35723130268374E-04  1.26676613855950E-02
 cg2d: Sum(rhs),rhsMax =   8.35804147822927E-04  1.26678683307368E-02
 cg2d: Sum(rhs),rhsMax =   8.35885011684637E-04  1.26680748508744E-02
 cg2d: Sum(rhs),rhsMax =   8.35965728585616E-04  1.26682809595990E-02
 cg2d: Sum(rhs),rhsMax =   8.36046276272160E-04  1.26684866464542E-02
 cg2d: Sum(rhs),rhsMax =   8.36126642427762E-04  1.26686919258141E-02
 cg2d: Sum(rhs),rhsMax =   8.36206808713550E-04  1.26688967849423E-02
 cg2d: Sum(rhs),rhsMax =   8.36286840482037E-04  1.26691012335558E-02
 cg2d: Sum(rhs),rhsMax =   8.36366707366651E-04  1.26693052652990E-02
 cg2d: Sum(rhs),rhsMax =   8.36446417846451E-04  1.26695088908686E-02
 cg2d: Sum(rhs),rhsMax =   8.36525912853178E-04  1.26697121026970E-02
 cg2d: Sum(rhs),rhsMax =   8.36605279244030E-04  1.26699149007104E-02
 cg2d: Sum(rhs),rhsMax =   8.36684461706970E-04  1.26701172874160E-02
 cg2d: Sum(rhs),rhsMax =   8.36763512495875E-04  1.26703192710674E-02
 cg2d: Sum(rhs),rhsMax =   8.36842403080868E-04  1.26705208410507E-02
 cg2d: Sum(rhs),rhsMax =   8.36921110475024E-04  1.26707220084345E-02
 cg2d: Sum(rhs),rhsMax =   8.36999651671876E-04  1.26709227645506E-02
 cg2d: Sum(rhs),rhsMax =   8.37078027642001E-04  1.26711231189307E-02
 cg2d: Sum(rhs),rhsMax =   8.37156129482366E-04  1.26713230658423E-02
 cg2d: Sum(rhs),rhsMax =   8.37234166721060E-04  1.26715226120801E-02
 cg2d: Sum(rhs),rhsMax =   8.37311987169591E-04  1.26717217493460E-02
 cg2d: Sum(rhs),rhsMax =   8.37389714263496E-04  1.26719204888459E-02
 cg2d: Sum(rhs),rhsMax =   8.37467254644187E-04  1.26721188220239E-02
 cg2d: Sum(rhs),rhsMax =   8.37544628695870E-04  1.26723167607825E-02
(PID.TID 0000.0001)      cg2d_init_res =   3.14389516638044E-03
(PID.TID 0000.0001)      cg2d_iters(min,last) =      -1     371
(PID.TID 0000.0001)      cg2d_last_res =   9.39156534031658E-08
(PID.TID 0000.0001) // =======================================================
(PID.TID 0000.0001) // Begin MONITOR dynamic field statistics
(PID.TID 0000.0001) // =======================================================
(PID.TID 0000.0001) %MON time_tsnumber                =                 11232
(PID.TID 0000.0001) %MON time_secondsf                =   1.3478400000000E+07
(PID.TID 0000.0001) %MON dynstat_eta_max              =   1.1395747206732E-01
(PID.TID 0000.0001) %MON dynstat_eta_min              =  -2.7463054338940E-01
(PID.TID 0000.0001) %MON dynstat_eta_mean             =  -5.0513437416799E-08
(PID.TID 0000.0001) %MON dynstat_eta_sd               =   1.0135965224534E-01
(PID.TID 0000.0001) %MON dynstat_eta_del2             =   6.0465228436588E-07
(PID.TID 0000.0001) %MON dynstat_uvel_max             =   1.0260295480643E-01
(PID.TID 0000.0001) %MON dynstat_uvel_min             =  -1.1216306307950E-01
(PID.TID 0000.0001) %MON dynstat_uvel_mean            =  -1.1468537709112E-07
(PID.TID 0000.0001) %MON dynstat_uvel_sd              =   4.1898990195905E-02
(PID.TID 0000.0001) %MON dynstat_uvel_del2            =   9.2860504656375E-07
(PID.TID 0000.0001) %MON dynstat_vvel_max             =   1.1543994745202E-01
(PID.TID 0000.0001) %MON dynstat_vvel_min             =  -9.4417863628941E-02
(PID.TID 0000.0001) %MON dynstat_vvel_mean            =  -8.9220119805783E-09
(PID.TID 0000.0001) %MON dynstat_vvel_sd              =   3.8553275655202E-02
(PID.TID 0000.0001) %MON dynstat_vvel_del2            =   1.2396837763909E-06
(PID.TID 0000.0001) %MON dynstat_wvel_max             =   1.1327334120870E-08
(PID.TID 0000.0001) %MON dynstat_wvel_min             =  -1.4718173639849E-08
(PID.TID 0000.0001) %MON dynstat_wvel_mean            =  -2.9400007174920E-21
(PID.TID 0000.0001) %MON dynstat_wvel_sd              =   4.8924318314389E-09
(PID.TID 0000.0001) %MON dynstat_wvel_del2            =   4.6540235851897E-14
(PID.TID 0000.0001) %MON dynstat_theta_max            =   2.0000000000000E+01
(PID.TID 0000.0001) %MON dynstat_theta_min            =   2.0000000000000E+01
(PID.TID 0000.0001) %MON dynstat_theta_mean           =   1.9999999999999E+01
(PID.TID 0000.0001) %MON dynstat_theta_sd             =   1.1972645097557E-12
(PID.TID 0000.0001) %MON dynstat_theta_del2           =   0.0000000000000E+00
(PID.TID 0000.0001) %MON dynstat_salt_max             =   3.0000000000000E+01
(PID.TID 0000.0001) %MON dynstat_salt_min             =   3.0000000000000E+01
(PID.TID 0000.0001) %MON dynstat_salt_mean            =   2.9999999999998E+01
(PID.TID 0000.0001) %MON dynstat_salt_sd              =   2.1529444893531E-12
(PID.TID 0000.0001) %MON dynstat_salt_del2            =   0.0000000000000E+00
(PID.TID 0000.0001) %MON trAdv_CFL_u_max              =   2.6918276273472E-02
(PID.TID 0000.0001) %MON trAdv_CFL_v_max              =   2.7703738526697E-02
(PID.TID 0000.0001) %MON trAdv_CFL_w_max              =   2.8443602446762E-09
(PID.TID 0000.0001) %MON advcfl_uvel_max              =   2.6919135139081E-02
(PID.TID 0000.0001) %MON advcfl_vvel_max              =   2.7705587388485E-02
(PID.TID 0000.0001) %MON advcfl_wvel_max              =   7.0647233471274E-09
(PID.TID 0000.0001) %MON advcfl_W_hf_max              =   0.0000000000000E+00
(PID.TID 0000.0001) %MON pe_b_mean                    =   1.0511483200450E-05
(PID.TID 0000.0001) %MON ke_max                       =   6.7021683146459E-03
(PID.TID 0000.0001) %MON ke_mean                      =   1.6136437527782E-03
(PID.TID 0000.0001) %MON ke_vol                       =   7.2529629296391E+15
(PID.TID 0000.0001) %MON vort_r_min                   =  -4.0359902928888E-06
(PID.TID 0000.0001) %MON vort_r_max                   =   3.2208710469257E-06
(PID.TID 0000.0001) %MON vort_a_mean                  =   1.0615000000000E-04
(PID.TID 0000.0001) %MON vort_a_sd                    =   3.6185815342282E-06
(PID.TID 0000.0001) %MON vort_p_mean                  =   1.1210870169429E-04
(PID.TID 0000.0001) %MON vort_p_sd                    =   2.1063880898123E-05
(PID.TID 0000.0001) %MON surfExpan_theta_mean         =  -5.8829237630753E-20
(PID.TID 0000.0001) %MON surfExpan_salt_mean          =  -8.8247219183910E-20
(PID.TID 0000.0001) // =======================================================
(PID.TID 0000.0001) // End MONITOR dynamic field statistics
(PID.TID 0000.0001) // =======================================================
 cg2d: Sum(rhs),rhsMax =   8.37621833094725E-04  1.26725142942071E-02
 cg2d: Sum(rhs),rhsMax =   8.37698870610460E-04  1.26727114337582E-02
 cg2d: Sum(rhs),rhsMax =   8.37775666891949E-04  1.26729081712229E-02
 cg2d: Sum(rhs),rhsMax =   8.37852326915378E-04  1.26731045157117E-02
 cg2d: Sum(rhs),rhsMax =   8.37959138327580E-04  1.26733004786744E-02
 cg2d: Sum(rhs),rhsMax =   8.38065695645219E-04  1.26734960295229E-02
 cg2d: Sum(rhs),rhsMax =   8.38171957489080E-04  1.26736911813448E-02
 cg2d: Sum(rhs),rhsMax =   8.38278012948853E-04  1.26738859450166E-02
 cg2d: Sum(rhs),rhsMax =   8.38383795187275E-04  1.26740803101503E-02
 cg2d: Sum(rhs),rhsMax =   8.38489316259882E-04  1.26742742855669E-02
 cg2d: Sum(rhs),rhsMax =   8.38594598509807E-04  1.26744678660010E-02
 cg2d: Sum(rhs),rhsMax =   8.38699623710523E-04  1.26746610614597E-02
 cg2d: Sum(rhs),rhsMax =   8.38804355737006E-04  1.26748538625428E-02
 cg2d: Sum(rhs),rhsMax =   8.38908818162031E-04  1.26750462762855E-02
 cg2d: Sum(rhs),rhsMax =   8.39013047306658E-04  1.26752382989257E-02
 cg2d: Sum(rhs),rhsMax =   8.39116990077224E-04  1.26754299412836E-02
 cg2d: Sum(rhs),rhsMax =   8.39220695536083E-04  1.26756211909479E-02
 cg2d: Sum(rhs),rhsMax =   8.39324123054385E-04  1.26758120598586E-02
 cg2d: Sum(rhs),rhsMax =   8.39427273806648E-04  1.26760025394674E-02
 cg2d: Sum(rhs),rhsMax =   8.39530200347497E-04  1.26761926434106E-02
 cg2d: Sum(rhs),rhsMax =   8.39632823428981E-04  1.26763823579916E-02
 cg2d: Sum(rhs),rhsMax =   8.39735229994991E-04  1.26765716929567E-02
 cg2d: Sum(rhs),rhsMax =   8.39837376945386E-04  1.26767606433096E-02
 cg2d: Sum(rhs),rhsMax =   8.39939242092254E-04  1.26769492184105E-02
 cg2d: Sum(rhs),rhsMax =   8.40040805747060E-04  1.26771374118499E-02
 cg2d: Sum(rhs),rhsMax =   8.40142131981860E-04  1.26773252252943E-02
 cg2d: Sum(rhs),rhsMax =   8.40243173463005E-04  1.26775126580272E-02
 cg2d: Sum(rhs),rhsMax =   8.40343943003535E-04  1.26776997208430E-02
 cg2d: Sum(rhs),rhsMax =   8.40444455559853E-04  1.26778864031683E-02
 cg2d: Sum(rhs),rhsMax =   8.40544729547364E-04  1.26780727138557E-02
 cg2d: Sum(rhs),rhsMax =   8.40644688903063E-04  1.26782586484394E-02
 cg2d: Sum(rhs),rhsMax =   8.40744376189325E-04  1.26784442109165E-02
 cg2d: Sum(rhs),rhsMax =   8.40843839979942E-04  1.26786293957101E-02
 cg2d: Sum(rhs),rhsMax =   8.40943013869990E-04  1.26788142161031E-02
 cg2d: Sum(rhs),rhsMax =   8.41041928896181E-04  1.26789986622431E-02
 cg2d: Sum(rhs),rhsMax =   8.41140559455540E-04  1.26791827401499E-02
 cg2d: Sum(rhs),rhsMax =   8.41238922003143E-04  1.26793664444901E-02
 cg2d: Sum(rhs),rhsMax =   8.41337010145226E-04  1.26795497872098E-02
 cg2d: Sum(rhs),rhsMax =   8.41434823328763E-04  1.26797327591170E-02
 cg2d: Sum(rhs),rhsMax =   8.41532384018932E-04  1.26799153692069E-02
 cg2d: Sum(rhs),rhsMax =   8.41629670407771E-04  1.26800976090575E-02
 cg2d: Sum(rhs),rhsMax =   8.41726677588252E-04  1.26802794868317E-02
 cg2d: Sum(rhs),rhsMax =   8.41823414746366E-04  1.26804609976750E-02
 cg2d: Sum(rhs),rhsMax =   8.41919875576237E-04  1.26806421511474E-02
 cg2d: Sum(rhs),rhsMax =   8.42016057488182E-04  1.26808229378256E-02
 cg2d: Sum(rhs),rhsMax =   8.42111964438013E-04  1.26810033668159E-02
 cg2d: Sum(rhs),rhsMax =   8.42207585870280E-04  1.26811834327656E-02
 cg2d: Sum(rhs),rhsMax =   8.42302955007078E-04  1.26813631448550E-02
 cg2d: Sum(rhs),rhsMax =   8.42398039297351E-04  1.26815424932533E-02
 cg2d: Sum(rhs),rhsMax =   8.42492858890213E-04  1.26817214878810E-02
 cg2d: Sum(rhs),rhsMax =   8.42587371399230E-04  1.26819001228233E-02
 cg2d: Sum(rhs),rhsMax =   8.42681616280844E-04  1.26820784072558E-02
 cg2d: Sum(rhs),rhsMax =   8.42775593761714E-04  1.26822563316595E-02
 cg2d: Sum(rhs),rhsMax =   8.42869295869611E-04  1.26824339062441E-02
 cg2d: Sum(rhs),rhsMax =   8.42962695652863E-04  1.26826111240378E-02
 cg2d: Sum(rhs),rhsMax =   8.43055847189959E-04  1.26827879953164E-02
 cg2d: Sum(rhs),rhsMax =   8.43148693108168E-04  1.26829645107846E-02
 cg2d: Sum(rhs),rhsMax =   8.43241276225946E-04  1.26831406793019E-02
 cg2d: Sum(rhs),rhsMax =   8.43333563298215E-04  1.26833164950555E-02
 cg2d: Sum(rhs),rhsMax =   8.43425555043678E-04  1.26834919675930E-02
 cg2d: Sum(rhs),rhsMax =   8.43517288540823E-04  1.26836670879795E-02
 cg2d: Sum(rhs),rhsMax =   8.43608733955854E-04  1.26838418650317E-02
 cg2d: Sum(rhs),rhsMax =   8.43699855126809E-04  1.26840162929417E-02
 cg2d: Sum(rhs),rhsMax =   8.43790728288683E-04  1.26841903813946E-02
 cg2d: Sum(rhs),rhsMax =   8.43881297475309E-04  1.26843641207698E-02
 cg2d: Sum(rhs),rhsMax =   8.43971615629692E-04  1.26845375214335E-02
 cg2d: Sum(rhs),rhsMax =   8.44061617362410E-04  1.26847105765316E-02
 cg2d: Sum(rhs),rhsMax =   8.44151340831448E-04  1.26848832956976E-02
 cg2d: Sum(rhs),rhsMax =   8.44240786906300E-04  1.26850556702550E-02
 cg2d: Sum(rhs),rhsMax =   8.44329963172361E-04  1.26852277094964E-02
 cg2d: Sum(rhs),rhsMax =   8.44418798747314E-04  1.26853994083336E-02
 cg2d: Sum(rhs),rhsMax =   8.44507358353633E-04  1.26855707708715E-02
(PID.TID 0000.0001)      cg2d_init_res =   3.10333875397970E-03
(PID.TID 0000.0001)      cg2d_iters(min,last) =      -1     369
(PID.TID 0000.0001)      cg2d_last_res =   9.18917916153084E-08
(PID.TID 0000.0001) // =======================================================
(PID.TID 0000.0001) // Begin MONITOR dynamic field statistics
(PID.TID 0000.0001) // =======================================================
(PID.TID 0000.0001) %MON time_tsnumber                =                 11304
(PID.TID 0000.0001) %MON time_secondsf                =   1.3564800000000E+07
(PID.TID 0000.0001) %MON dynstat_eta_max              =   1.1454271861348E-01
(PID.TID 0000.0001) %MON dynstat_eta_min              =  -2.7571971017892E-01
(PID.TID 0000.0001) %MON dynstat_eta_mean             =  -5.0987163471698E-08
(PID.TID 0000.0001) %MON dynstat_eta_sd               =   1.0165739583174E-01
(PID.TID 0000.0001) %MON dynstat_eta_del2             =   6.0684370136325E-07
(PID.TID 0000.0001) %MON dynstat_uvel_max             =   1.0295278712426E-01
(PID.TID 0000.0001) %MON dynstat_uvel_min             =  -1.1241591926069E-01
(PID.TID 0000.0001) %MON dynstat_uvel_mean            =  -9.2909010175072E-08
(PID.TID 0000.0001) %MON dynstat_uvel_sd              =   4.2003214612980E-02
(PID.TID 0000.0001) %MON dynstat_uvel_del2            =   9.2948648580058E-07
(PID.TID 0000.0001) %MON dynstat_vvel_max             =   1.1599891486217E-01
(PID.TID 0000.0001) %MON dynstat_vvel_min             =  -9.4866272452425E-02
(PID.TID 0000.0001) %MON dynstat_vvel_mean            =   1.0224973804639E-08
(PID.TID 0000.0001) %MON dynstat_vvel_sd              =   3.8728998092904E-02
(PID.TID 0000.0001) %MON dynstat_vvel_del2            =   1.2443800829231E-06
(PID.TID 0000.0001) %MON dynstat_wvel_max             =   1.0702974628657E-08
(PID.TID 0000.0001) %MON dynstat_wvel_min             =  -1.4577268846333E-08
(PID.TID 0000.0001) %MON dynstat_wvel_mean            =   4.4673001291604E-22
(PID.TID 0000.0001) %MON dynstat_wvel_sd              =   4.8275789888472E-09
(PID.TID 0000.0001) %MON dynstat_wvel_del2            =   4.6016615662923E-14
(PID.TID 0000.0001) %MON dynstat_theta_max            =   2.0000000000000E+01
(PID.TID 0000.0001) %MON dynstat_theta_min            =   2.0000000000000E+01
(PID.TID 0000.0001) %MON dynstat_theta_mean           =   1.9999999999999E+01
(PID.TID 0000.0001) %MON dynstat_theta_sd             =   1.1972645097557E-12
(PID.TID 0000.0001) %MON dynstat_theta_del2           =   0.0000000000000E+00
(PID.TID 0000.0001) %MON dynstat_salt_max             =   3.0000000000000E+01
(PID.TID 0000.0001) %MON dynstat_salt_min             =   3.0000000000000E+01
(PID.TID 0000.0001) %MON dynstat_salt_mean            =   2.9999999999998E+01
(PID.TID 0000.0001) %MON dynstat_salt_sd              =   2.1529444893531E-12
(PID.TID 0000.0001) %MON dynstat_salt_del2            =   0.0000000000000E+00
(PID.TID 0000.0001) %MON trAdv_CFL_u_max              =   2.6978992390777E-02
(PID.TID 0000.0001) %MON trAdv_CFL_v_max              =   2.7837863645807E-02
(PID.TID 0000.0001) %MON trAdv_CFL_w_max              =   2.6811044444242E-09
(PID.TID 0000.0001) %MON advcfl_uvel_max              =   2.6979820622565E-02
(PID.TID 0000.0001) %MON advcfl_vvel_max              =   2.7839739566920E-02
(PID.TID 0000.0001) %MON advcfl_wvel_max              =   6.9970890462399E-09
(PID.TID 0000.0001) %MON advcfl_W_hf_max              =   0.0000000000000E+00
(PID.TID 0000.0001) %MON pe_b_mean                    =   1.0573328785299E-05
(PID.TID 0000.0001) %MON ke_max                       =   6.7651338736624E-03
(PID.TID 0000.0001) %MON ke_mean                      =   1.6247559503284E-03
(PID.TID 0000.0001) %MON ke_vol                       =   7.2529629296391E+15
(PID.TID 0000.0001) %MON vort_r_min                   =  -4.0403666113702E-06
(PID.TID 0000.0001) %MON vort_r_max                   =   3.2395548770896E-06
(PID.TID 0000.0001) %MON vort_a_mean                  =   1.0615000000000E-04
(PID.TID 0000.0001) %MON vort_a_sd                    =   3.6189540092966E-06
(PID.TID 0000.0001) %MON vort_p_mean                  =   1.1210870169429E-04
(PID.TID 0000.0001) %MON vort_p_sd                    =   2.1064029399101E-05
(PID.TID 0000.0001) %MON surfExpan_theta_mean         =   8.8678495000814E-21
(PID.TID 0000.0001) %MON surfExpan_salt_mean          =   1.3305052449802E-20
(PID.TID 0000.0001) // =======================================================
(PID.TID 0000.0001) // End MONITOR dynamic field statistics
(PID.TID 0000.0001) // =======================================================
 cg2d: Sum(rhs),rhsMax =   8.44595638871773E-04  1.26857417923006E-02
 cg2d: Sum(rhs),rhsMax =   8.44683644144317E-04  1.26859124838367E-02
 cg2d: Sum(rhs),rhsMax =   8.44771369757085E-04  1.26860828361429E-02
 cg2d: Sum(rhs),rhsMax =   8.44858796070666E-04  1.26862528601866E-02
 cg2d: Sum(rhs),rhsMax =   8.44945893870108E-04  1.26864225466495E-02
 cg2d: Sum(rhs),rhsMax =   8.45032735827360E-04  1.26865919067081E-02
 cg2d: Sum(rhs),rhsMax =   8.45119277160742E-04  1.26867609327388E-02
 cg2d: Sum(rhs),rhsMax =   8.45205507264853E-04  1.26869296303220E-02
 cg2d: Sum(rhs),rhsMax =   8.45291432796947E-04  1.26870979964374E-02
 cg2d: Sum(rhs),rhsMax =   8.45377045905669E-04  1.26872660366047E-02
 cg2d: Sum(rhs),rhsMax =   8.45462405717166E-04  1.26874337461876E-02
 cg2d: Sum(rhs),rhsMax =   8.45547461204188E-04  1.26876011341730E-02
 cg2d: Sum(rhs),rhsMax =   8.45632207536487E-04  1.26877681921666E-02
 cg2d: Sum(rhs),rhsMax =   8.45716686483255E-04  1.26879349299199E-02
 cg2d: Sum(rhs),rhsMax =   8.45800832870992E-04  1.26881013399183E-02
 cg2d: Sum(rhs),rhsMax =   8.45884679190473E-04  1.26882674339290E-02
 cg2d: Sum(rhs),rhsMax =   8.45968219686688E-04  1.26884332058876E-02
 cg2d: Sum(rhs),rhsMax =   8.46051446336919E-04  1.26885986529577E-02
 cg2d: Sum(rhs),rhsMax =   8.46134380345781E-04  1.26887637779330E-02
 cg2d: Sum(rhs),rhsMax =   8.46216999208640E-04  1.26889285894822E-02
 cg2d: Sum(rhs),rhsMax =   8.46299343646327E-04  1.26890930801915E-02
 cg2d: Sum(rhs),rhsMax =   8.46381375868623E-04  1.26892572588658E-02
 cg2d: Sum(rhs),rhsMax =   8.46463099101063E-04  1.26894211153754E-02
 cg2d: Sum(rhs),rhsMax =   8.46544487274493E-04  1.26895846627348E-02
 cg2d: Sum(rhs),rhsMax =   8.46625595669006E-04  1.26897478901524E-02
 cg2d: Sum(rhs),rhsMax =   8.46706348869068E-04  1.26899108099601E-02
 cg2d: Sum(rhs),rhsMax =   8.46786804456896E-04  1.26900734116874E-02
 cg2d: Sum(rhs),rhsMax =   8.46866940717943E-04  1.26902357090621E-02
 cg2d: Sum(rhs),rhsMax =   8.46958091084994E-04  1.26903976909891E-02
 cg2d: Sum(rhs),rhsMax =   8.47077947074840E-04  1.26905593483485E-02
 cg2d: Sum(rhs),rhsMax =   8.47197303106950E-04  1.26907207128742E-02
 cg2d: Sum(rhs),rhsMax =   8.47316076769038E-04  1.26908817717254E-02
 cg2d: Sum(rhs),rhsMax =   8.47434314415942E-04  1.26910425235138E-02
 cg2d: Sum(rhs),rhsMax =   8.47551931212737E-04  1.26912029717857E-02
 cg2d: Sum(rhs),rhsMax =   8.47669049235505E-04  1.26913631135512E-02
 cg2d: Sum(rhs),rhsMax =   8.47785613351250E-04  1.26915229517596E-02
 cg2d: Sum(rhs),rhsMax =   8.47901596626016E-04  1.26916824872486E-02
 cg2d: Sum(rhs),rhsMax =   8.48017002395321E-04  1.26918417226560E-02
 cg2d: Sum(rhs),rhsMax =   8.48131807107036E-04  1.26920006554482E-02
 cg2d: Sum(rhs),rhsMax =   8.48246066202285E-04  1.26921592912518E-02
 cg2d: Sum(rhs),rhsMax =   8.48359755336089E-04  1.26923176246612E-02
 cg2d: Sum(rhs),rhsMax =   8.48472825850504E-04  1.26924756637042E-02
 cg2d: Sum(rhs),rhsMax =   8.48585264596807E-04  1.26926334038982E-02
 cg2d: Sum(rhs),rhsMax =   8.48697125920327E-04  1.26927908480370E-02
 cg2d: Sum(rhs),rhsMax =   8.48808424536931E-04  1.26929479958208E-02
 cg2d: Sum(rhs),rhsMax =   8.48919090588970E-04  1.26931048529308E-02
 cg2d: Sum(rhs),rhsMax =   8.49029103723774E-04  1.26932614128265E-02
 cg2d: Sum(rhs),rhsMax =   8.49138506522698E-04  1.26934176852351E-02
 cg2d: Sum(rhs),rhsMax =   8.49247266830224E-04  1.26935736640815E-02
 cg2d: Sum(rhs),rhsMax =   8.49355377852348E-04  1.26937293538136E-02
 cg2d: Sum(rhs),rhsMax =   8.49462887833198E-04  1.26938847524649E-02
 cg2d: Sum(rhs),rhsMax =   8.49569652295301E-04  1.26940398642350E-02
 cg2d: Sum(rhs),rhsMax =   8.49675781552962E-04  1.26941946864084E-02
 cg2d: Sum(rhs),rhsMax =   8.49781236101906E-04  1.26943492251313E-02
 cg2d: Sum(rhs),rhsMax =   8.49886038010606E-04  1.26945034748647E-02
 cg2d: Sum(rhs),rhsMax =   8.49990167929564E-04  1.26946574450434E-02
 cg2d: Sum(rhs),rhsMax =   8.50093558257983E-04  1.26948111275857E-02
 cg2d: Sum(rhs),rhsMax =   8.50196264429745E-04  1.26949645311520E-02
 cg2d: Sum(rhs),rhsMax =   8.50298237224024E-04  1.26951176506081E-02
 cg2d: Sum(rhs),rhsMax =   8.50399489425391E-04  1.26952704906831E-02
 cg2d: Sum(rhs),rhsMax =   8.50500014985829E-04  1.26954230491773E-02
 cg2d: Sum(rhs),rhsMax =   8.50599762056878E-04  1.26955753306149E-02
 cg2d: Sum(rhs),rhsMax =   8.50698750560357E-04  1.26957273329910E-02
 cg2d: Sum(rhs),rhsMax =   8.50796947593917E-04  1.26958790620460E-02
 cg2d: Sum(rhs),rhsMax =   8.50894354266250E-04  1.26960305126336E-02
 cg2d: Sum(rhs),rhsMax =   8.50990965980188E-04  1.26961816891762E-02
 cg2d: Sum(rhs),rhsMax =   8.51097730701090E-04  1.26963325966466E-02
 cg2d: Sum(rhs),rhsMax =   8.51231677268513E-04  1.26964832444141E-02
 cg2d: Sum(rhs),rhsMax =   8.51364220373416E-04  1.26966336004196E-02
 cg2d: Sum(rhs),rhsMax =   8.51495267316418E-04  1.26967836867025E-02
 cg2d: Sum(rhs),rhsMax =   8.51624856506071E-04  1.26969335039123E-02
 cg2d: Sum(rhs),rhsMax =   8.51752956227846E-04  1.26970830493222E-02
(PID.TID 0000.0001)      cg2d_init_res =   3.05893013484792E-03
(PID.TID 0000.0001)      cg2d_iters(min,last) =      -1     363
(PID.TID 0000.0001)      cg2d_last_res =   9.53324747548894E-08
(PID.TID 0000.0001) // =======================================================
(PID.TID 0000.0001) // Begin MONITOR dynamic field statistics
(PID.TID 0000.0001) // =======================================================
(PID.TID 0000.0001) %MON time_tsnumber                =                 11376
(PID.TID 0000.0001) %MON time_secondsf                =   1.3651200000000E+07
(PID.TID 0000.0001) %MON dynstat_eta_max              =   1.1508370307760E-01
(PID.TID 0000.0001) %MON dynstat_eta_min              =  -2.7678322446667E-01
(PID.TID 0000.0001) %MON dynstat_eta_mean             =  -5.1473462100943E-08
(PID.TID 0000.0001) %MON dynstat_eta_sd               =   1.0194724817494E-01
(PID.TID 0000.0001) %MON dynstat_eta_del2             =   6.0895837007951E-07
(PID.TID 0000.0001) %MON dynstat_uvel_max             =   1.0330555299780E-01
(PID.TID 0000.0001) %MON dynstat_uvel_min             =  -1.1266711394088E-01
(PID.TID 0000.0001) %MON dynstat_uvel_mean            =  -6.8209996486283E-08
(PID.TID 0000.0001) %MON dynstat_uvel_sd              =   4.2101756241266E-02
(PID.TID 0000.0001) %MON dynstat_uvel_del2            =   9.3038348611559E-07
(PID.TID 0000.0001) %MON dynstat_vvel_max             =   1.1656478296525E-01
(PID.TID 0000.0001) %MON dynstat_vvel_min             =  -9.5348186255625E-02
(PID.TID 0000.0001) %MON dynstat_vvel_mean            =   2.5368951955145E-08
(PID.TID 0000.0001) %MON dynstat_vvel_sd              =   3.8906399086623E-02
(PID.TID 0000.0001) %MON dynstat_vvel_del2            =   1.2481454392676E-06
(PID.TID 0000.0001) %MON dynstat_wvel_max             =   9.9559800419956E-09
(PID.TID 0000.0001) %MON dynstat_wvel_min             =  -1.4358707848005E-08
(PID.TID 0000.0001) %MON dynstat_wvel_mean            =   1.3317362662580E-21
(PID.TID 0000.0001) %MON dynstat_wvel_sd              =   4.7703085249349E-09
(PID.TID 0000.0001) %MON dynstat_wvel_del2            =   4.5600874274471E-14
(PID.TID 0000.0001) %MON dynstat_theta_max            =   2.0000000000000E+01
(PID.TID 0000.0001) %MON dynstat_theta_min            =   2.0000000000000E+01
(PID.TID 0000.0001) %MON dynstat_theta_mean           =   1.9999999999999E+01
(PID.TID 0000.0001) %MON dynstat_theta_sd             =   1.1972645097557E-12
(PID.TID 0000.0001) %MON dynstat_theta_del2           =   0.0000000000000E+00
(PID.TID 0000.0001) %MON dynstat_salt_max             =   3.0000000000000E+01
(PID.TID 0000.0001) %MON dynstat_salt_min             =   3.0000000000000E+01
(PID.TID 0000.0001) %MON dynstat_salt_mean            =   2.9999999999998E+01
(PID.TID 0000.0001) %MON dynstat_salt_sd              =   2.1529444893531E-12
(PID.TID 0000.0001) %MON dynstat_salt_del2            =   0.0000000000000E+00
(PID.TID 0000.0001) %MON trAdv_CFL_u_max              =   2.7039279947822E-02
(PID.TID 0000.0001) %MON trAdv_CFL_v_max              =   2.7973653047008E-02
(PID.TID 0000.0001) %MON trAdv_CFL_w_max              =   2.4897208757090E-09
(PID.TID 0000.0001) %MON advcfl_uvel_max              =   2.7040107345810E-02
(PID.TID 0000.0001) %MON advcfl_vvel_max              =   2.7975547911659E-02
(PID.TID 0000.0001) %MON advcfl_wvel_max              =   6.8921797670424E-09
(PID.TID 0000.0001) %MON advcfl_W_hf_max              =   0.0000000000000E+00
(PID.TID 0000.0001) %MON pe_b_mean                    =   1.0633709503161E-05
(PID.TID 0000.0001) %MON ke_max                       =   6.8294007457813E-03
(PID.TID 0000.0001) %MON ke_mean                      =   1.6357365178057E-03
(PID.TID 0000.0001) %MON ke_vol                       =   7.2529629296391E+15
(PID.TID 0000.0001) %MON vort_r_min                   =  -4.0441101199341E-06
(PID.TID 0000.0001) %MON vort_r_max                   =   3.2547307941629E-06
(PID.TID 0000.0001) %MON vort_a_mean                  =   1.0615000000000E-04
(PID.TID 0000.0001) %MON vort_a_sd                    =   3.6193126407584E-06
(PID.TID 0000.0001) %MON vort_p_mean                  =   1.1210870169429E-04
(PID.TID 0000.0001) %MON vort_p_sd                    =   2.1064178387851E-05
(PID.TID 0000.0001) %MON surfExpan_theta_mean         =   2.6502168531349E-20
(PID.TID 0000.0001) %MON surfExpan_salt_mean          =   3.9759611940816E-20
(PID.TID 0000.0001) // =======================================================
(PID.TID 0000.0001) // End MONITOR dynamic field statistics
(PID.TID 0000.0001) // =======================================================
 cg2d: Sum(rhs),rhsMax =   8.51879493882983E-04  1.26972323265591E-02
 cg2d: Sum(rhs),rhsMax =   8.52004498361687E-04  1.26973813396540E-02
 cg2d: Sum(rhs),rhsMax =   8.52127935968110E-04  1.26975300871460E-02
 cg2d: Sum(rhs),rhsMax =   8.52249785956024E-04  1.26976785667532E-02
 cg2d: Sum(rhs),rhsMax =   8.52380955814538E-04  1.26978267898631E-02
 cg2d: Sum(rhs),rhsMax =   8.52510214775297E-04  1.26979747377917E-02
 cg2d: Sum(rhs),rhsMax =   8.52679005385550E-04  1.26981224119058E-02
 cg2d: Sum(rhs),rhsMax =   8.53016222511447E-04  1.26982698518945E-02
 cg2d: Sum(rhs),rhsMax =   8.53353879990791E-04  1.26984170241761E-02
 cg2d: Sum(rhs),rhsMax =   8.53682200237979E-04  1.26985639340365E-02
 cg2d: Sum(rhs),rhsMax =   8.54010051119670E-04  1.26987105903443E-02
 cg2d: Sum(rhs),rhsMax =   8.54328195753198E-04  1.26988569846223E-02
 cg2d: Sum(rhs),rhsMax =   8.54636649679141E-04  1.26990031242348E-02
 cg2d: Sum(rhs),rhsMax =   8.54943763122208E-04  1.26991490040964E-02
 cg2d: Sum(rhs),rhsMax =   8.55241055425591E-04  1.26992946329549E-02
 cg2d: Sum(rhs),rhsMax =   8.55528697246038E-04  1.26994400084071E-02
 cg2d: Sum(rhs),rhsMax =   8.55814437712207E-04  1.26995851409406E-02
 cg2d: Sum(rhs),rhsMax =   8.56090368721533E-04  1.26997300102978E-02
 cg2d: Sum(rhs),rhsMax =   8.56364339326820E-04  1.26998746308902E-02
 cg2d: Sum(rhs),rhsMax =   8.56628419078367E-04  1.27000190038839E-02
 cg2d: Sum(rhs),rhsMax =   8.56882744696381E-04  1.27001631272334E-02
 cg2d: Sum(rhs),rhsMax =   8.57134905821670E-04  1.27003070166356E-02
 cg2d: Sum(rhs),rhsMax =   8.57377274792100E-04  1.27004506448894E-02
 cg2d: Sum(rhs),rhsMax =   8.57610072979756E-04  1.27005940310020E-02
 cg2d: Sum(rhs),rhsMax =   8.57833377939553E-04  1.27007371671847E-02
 cg2d: Sum(rhs),rhsMax =   8.58054421272536E-04  1.27008800684222E-02
 cg2d: Sum(rhs),rhsMax =   8.58266075070689E-04  1.27010227250480E-02
 cg2d: Sum(rhs),rhsMax =   8.58468556530540E-04  1.27011651382836E-02
 cg2d: Sum(rhs),rhsMax =   8.58662015578823E-04  1.27013073119687E-02
 cg2d: Sum(rhs),rhsMax =   8.58853329356087E-04  1.27014492422096E-02
 cg2d: Sum(rhs),rhsMax =   8.59035751588171E-04  1.27015909378640E-02
 cg2d: Sum(rhs),rhsMax =   8.59209543181862E-04  1.27017323950700E-02
 cg2d: Sum(rhs),rhsMax =   8.59374864743623E-04  1.27018736160932E-02
 cg2d: Sum(rhs),rhsMax =   8.59531951797440E-04  1.27020145999298E-02
 cg2d: Sum(rhs),rhsMax =   8.59681019025659E-04  1.27021553512352E-02
 cg2d: Sum(rhs),rhsMax =   8.59828448309325E-04  1.27022958647146E-02
 cg2d: Sum(rhs),rhsMax =   8.59968131564510E-04  1.27024361484532E-02
 cg2d: Sum(rhs),rhsMax =   8.60100332952050E-04  1.27025762005914E-02
 cg2d: Sum(rhs),rhsMax =   8.60225206521204E-04  1.27027160218133E-02
 cg2d: Sum(rhs),rhsMax =   8.60343045375200E-04  1.27028556135952E-02
 cg2d: Sum(rhs),rhsMax =   8.60454091394968E-04  1.27029949760613E-02
 cg2d: Sum(rhs),rhsMax =   8.60558586458325E-04  1.27031341119506E-02
 cg2d: Sum(rhs),rhsMax =   8.60656784317855E-04  1.27032730194423E-02
 cg2d: Sum(rhs),rhsMax =   8.60748927996379E-04  1.27034117034374E-02
 cg2d: Sum(rhs),rhsMax =   8.60840842029087E-04  1.27035501560309E-02
 cg2d: Sum(rhs),rhsMax =   8.60927163518923E-04  1.27036883914785E-02
 cg2d: Sum(rhs),rhsMax =   8.61008123259715E-04  1.27038264001962E-02
 cg2d: Sum(rhs),rhsMax =   8.61084044362165E-04  1.27039641931961E-02
 cg2d: Sum(rhs),rhsMax =   8.61155151052088E-04  1.27041017605238E-02
 cg2d: Sum(rhs),rhsMax =   8.61221775651719E-04  1.27042391117851E-02
 cg2d: Sum(rhs),rhsMax =   8.61284168100702E-04  1.27043762408124E-02
 cg2d: Sum(rhs),rhsMax =   8.61342665515899E-04  1.27045131545851E-02
 cg2d: Sum(rhs),rhsMax =   8.61397500200768E-04  1.27046498457359E-02
 cg2d: Sum(rhs),rhsMax =   8.61448986988507E-04  1.27047863288514E-02
 cg2d: Sum(rhs),rhsMax =   8.61497439515076E-04  1.27049225925961E-02
 cg2d: Sum(rhs),rhsMax =   8.61543125168033E-04  1.27050586424065E-02
 cg2d: Sum(rhs),rhsMax =   8.61586363801055E-04  1.27051944778921E-02
 cg2d: Sum(rhs),rhsMax =   8.61627439588749E-04  1.27053301056042E-02
 cg2d: Sum(rhs),rhsMax =   8.61671694720035E-04  1.27054655187322E-02
 cg2d: Sum(rhs),rhsMax =   8.61714350449367E-04  1.27056007239870E-02
 cg2d: Sum(rhs),rhsMax =   8.61755724950597E-04  1.27057357203125E-02
 cg2d: Sum(rhs),rhsMax =   8.61796101131771E-04  1.27058705082643E-02
 cg2d: Sum(rhs),rhsMax =   8.61835802675976E-04  1.27060050897666E-02
 cg2d: Sum(rhs),rhsMax =   8.61875100780967E-04  1.27061394639368E-02
 cg2d: Sum(rhs),rhsMax =   8.61914291593130E-04  1.27062736353505E-02
 cg2d: Sum(rhs),rhsMax =   8.61953755938562E-04  1.27064075974995E-02
 cg2d: Sum(rhs),rhsMax =   8.61993739932149E-04  1.27065413613570E-02
 cg2d: Sum(rhs),rhsMax =   8.62034580095438E-04  1.27066749207662E-02
 cg2d: Sum(rhs),rhsMax =   8.62076533342457E-04  1.27068082820681E-02
 cg2d: Sum(rhs),rhsMax =   8.62119931356169E-04  1.27069414409214E-02
 cg2d: Sum(rhs),rhsMax =   8.62165063983313E-04  1.27070744028394E-02
 cg2d: Sum(rhs),rhsMax =   8.62212191250973E-04  1.27072071664100E-02
(PID.TID 0000.0001)      cg2d_init_res =   3.01270662103726E-03
(PID.TID 0000.0001)      cg2d_iters(min,last) =      -1     335
(PID.TID 0000.0001)      cg2d_last_res =   9.95101117654982E-08
(PID.TID 0000.0001) // =======================================================
(PID.TID 0000.0001) // Begin MONITOR dynamic field statistics
(PID.TID 0000.0001) // =======================================================
(PID.TID 0000.0001) %MON time_tsnumber                =                 11448
(PID.TID 0000.0001) %MON time_secondsf                =   1.3737600000000E+07
(PID.TID 0000.0001) %MON dynstat_eta_max              =   1.1557444934386E-01
(PID.TID 0000.0001) %MON dynstat_eta_min              =  -2.7781812082427E-01
(PID.TID 0000.0001) %MON dynstat_eta_mean             =  -5.2142260049224E-08
(PID.TID 0000.0001) %MON dynstat_eta_sd               =   1.0222940873230E-01
(PID.TID 0000.0001) %MON dynstat_eta_del2             =   6.1099333576609E-07
(PID.TID 0000.0001) %MON dynstat_uvel_max             =   1.0366631896512E-01
(PID.TID 0000.0001) %MON dynstat_uvel_min             =  -1.1291239037616E-01
(PID.TID 0000.0001) %MON dynstat_uvel_mean            =  -4.1696152312574E-08
(PID.TID 0000.0001) %MON dynstat_uvel_sd              =   4.2196319917283E-02
(PID.TID 0000.0001) %MON dynstat_uvel_del2            =   9.3134945169547E-07
(PID.TID 0000.0001) %MON dynstat_vvel_max             =   1.1713503307016E-01
(PID.TID 0000.0001) %MON dynstat_vvel_min             =  -9.5861994899854E-02
(PID.TID 0000.0001) %MON dynstat_vvel_mean            =   3.6123819643192E-08
(PID.TID 0000.0001) %MON dynstat_vvel_sd              =   3.9083394209743E-02
(PID.TID 0000.0001) %MON dynstat_vvel_del2            =   1.2509337630957E-06
(PID.TID 0000.0001) %MON dynstat_wvel_max             =   9.1177899809554E-09
(PID.TID 0000.0001) %MON dynstat_wvel_min             =  -1.4065403302666E-08
(PID.TID 0000.0001) %MON dynstat_wvel_mean            =   3.4371999839961E-21
(PID.TID 0000.0001) %MON dynstat_wvel_sd              =   4.7205711175864E-09
(PID.TID 0000.0001) %MON dynstat_wvel_del2            =   4.5236970834201E-14
(PID.TID 0000.0001) %MON dynstat_theta_max            =   2.0000000000000E+01
(PID.TID 0000.0001) %MON dynstat_theta_min            =   2.0000000000000E+01
(PID.TID 0000.0001) %MON dynstat_theta_mean           =   1.9999999999999E+01
(PID.TID 0000.0001) %MON dynstat_theta_sd             =   1.1972645097557E-12
(PID.TID 0000.0001) %MON dynstat_theta_del2           =   0.0000000000000E+00
(PID.TID 0000.0001) %MON dynstat_salt_max             =   3.0000000000000E+01
(PID.TID 0000.0001) %MON dynstat_salt_min             =   3.0000000000000E+01
(PID.TID 0000.0001) %MON dynstat_salt_mean            =   2.9999999999998E+01
(PID.TID 0000.0001) %MON dynstat_salt_sd              =   2.1529444893531E-12
(PID.TID 0000.0001) %MON dynstat_salt_del2            =   0.0000000000000E+00
(PID.TID 0000.0001) %MON trAdv_CFL_u_max              =   2.7098164625877E-02
(PID.TID 0000.0001) %MON trAdv_CFL_v_max              =   2.8110502730536E-02
(PID.TID 0000.0001) %MON trAdv_CFL_w_max              =   2.2756533032766E-09
(PID.TID 0000.0001) %MON advcfl_uvel_max              =   2.7098973690278E-02
(PID.TID 0000.0001) %MON advcfl_vvel_max              =   2.8112407936839E-02
(PID.TID 0000.0001) %MON advcfl_wvel_max              =   6.7513935852796E-09
(PID.TID 0000.0001) %MON advcfl_W_hf_max              =   0.0000000000000E+00
(PID.TID 0000.0001) %MON pe_b_mean                    =   1.0692653037060E-05
(PID.TID 0000.0001) %MON ke_max                       =   6.8947142561014E-03
(PID.TID 0000.0001) %MON ke_mean                      =   1.6465751827528E-03
(PID.TID 0000.0001) %MON ke_vol                       =   7.2529629296391E+15
(PID.TID 0000.0001) %MON vort_r_min                   =  -4.0473321049558E-06
(PID.TID 0000.0001) %MON vort_r_max                   =   3.2660041655989E-06
(PID.TID 0000.0001) %MON vort_a_mean                  =   1.0615000000000E-04
(PID.TID 0000.0001) %MON vort_a_sd                    =   3.6196572397325E-06
(PID.TID 0000.0001) %MON vort_p_mean                  =   1.1210870169429E-04
(PID.TID 0000.0001) %MON vort_p_sd                    =   2.1064325085825E-05
(PID.TID 0000.0001) %MON surfExpan_theta_mean         =   6.8621173108776E-20
(PID.TID 0000.0001) %MON surfExpan_salt_mean          =   1.0293694466667E-19
(PID.TID 0000.0001) // =======================================================
(PID.TID 0000.0001) // End MONITOR dynamic field statistics
(PID.TID 0000.0001) // =======================================================
 cg2d: Sum(rhs),rhsMax =   8.62261635895823E-04  1.27073397323035E-02
 cg2d: Sum(rhs),rhsMax =   8.62313689827933E-04  1.27074721056069E-02
 cg2d: Sum(rhs),rhsMax =   8.62363485023119E-04  1.27076042810064E-02
 cg2d: Sum(rhs),rhsMax =   8.62416402054636E-04  1.27077362614024E-02
 cg2d: Sum(rhs),rhsMax =   8.62472720393812E-04  1.27078680474605E-02
 cg2d: Sum(rhs),rhsMax =   8.62532684211669E-04  1.27079996436981E-02
 cg2d: Sum(rhs),rhsMax =   8.62596493348747E-04  1.27081310475250E-02
 cg2d: Sum(rhs),rhsMax =   8.62664554201045E-04  1.27082622623763E-02
 cg2d: Sum(rhs),rhsMax =   8.62737058866133E-04  1.27083932872506E-02
 cg2d: Sum(rhs),rhsMax =   8.62814260114926E-04  1.27085241240248E-02
 cg2d: Sum(rhs),rhsMax =   8.62896380108455E-04  1.27086547724820E-02
 cg2d: Sum(rhs),rhsMax =   8.62983715689812E-04  1.27087852394090E-02
 cg2d: Sum(rhs),rhsMax =   8.63076466313102E-04  1.27089155172335E-02
 cg2d: Sum(rhs),rhsMax =   8.63174881446396E-04  1.27090456099596E-02
 cg2d: Sum(rhs),rhsMax =   8.63279213625339E-04  1.27091755203685E-02
 cg2d: Sum(rhs),rhsMax =   8.63389629638688E-04  1.27093052497425E-02
 cg2d: Sum(rhs),rhsMax =   8.63500537018369E-04  1.27094347998848E-02
 cg2d: Sum(rhs),rhsMax =   8.63617811079525E-04  1.27095641698948E-02
 cg2d: Sum(rhs),rhsMax =   8.63741692296876E-04  1.27096933556666E-02
 cg2d: Sum(rhs),rhsMax =   8.63872360980579E-04  1.27098223681591E-02
 cg2d: Sum(rhs),rhsMax =   8.64010017768686E-04  1.27099511971092E-02
 cg2d: Sum(rhs),rhsMax =   8.64154824374250E-04  1.27100798513143E-02
 cg2d: Sum(rhs),rhsMax =   8.64306978260988E-04  1.27102083311215E-02
 cg2d: Sum(rhs),rhsMax =   8.64466613113070E-04  1.27103366396885E-02
 cg2d: Sum(rhs),rhsMax =   8.64627371745787E-04  1.27104647796295E-02
 cg2d: Sum(rhs),rhsMax =   8.64795770862547E-04  1.27105927382919E-02
 cg2d: Sum(rhs),rhsMax =   8.64971941807582E-04  1.27107205308637E-02
 cg2d: Sum(rhs),rhsMax =   8.65155970762895E-04  1.27108481482867E-02
 cg2d: Sum(rhs),rhsMax =   8.65348068290540E-04  1.27109755991711E-02
 cg2d: Sum(rhs),rhsMax =   8.65541413868900E-04  1.27111028791048E-02
 cg2d: Sum(rhs),rhsMax =   8.65742805587627E-04  1.27112299949469E-02
 cg2d: Sum(rhs),rhsMax =   8.65952352666800E-04  1.27113569416320E-02
 cg2d: Sum(rhs),rhsMax =   8.66170107765881E-04  1.27114837249062E-02
 cg2d: Sum(rhs),rhsMax =   8.66389029274450E-04  1.27116103420281E-02
 cg2d: Sum(rhs),rhsMax =   8.66616038295348E-04  1.27117367970577E-02
 cg2d: Sum(rhs),rhsMax =   8.66851311682708E-04  1.27118630904600E-02
 cg2d: Sum(rhs),rhsMax =   8.67094861619308E-04  1.27119892211110E-02
 cg2d: Sum(rhs),rhsMax =   8.67346758968109E-04  1.27121151908930E-02
 cg2d: Sum(rhs),rhsMax =   8.67599162427369E-04  1.27122409954589E-02
 cg2d: Sum(rhs),rhsMax =   8.67859708869255E-04  1.27123666477505E-02
 cg2d: Sum(rhs),rhsMax =   8.68128437899655E-04  1.27124921411152E-02
 cg2d: Sum(rhs),rhsMax =   8.68397314069812E-04  1.27126174842553E-02
 cg2d: Sum(rhs),rhsMax =   8.68674135705455E-04  1.27127426637946E-02
 cg2d: Sum(rhs),rhsMax =   8.68950929150488E-04  1.27128676863563E-02
 cg2d: Sum(rhs),rhsMax =   8.69235385876913E-04  1.27129925607895E-02
 cg2d: Sum(rhs),rhsMax =   8.69527509734078E-04  1.27131172812426E-02
 cg2d: Sum(rhs),rhsMax =   8.69827265750368E-04  1.27132418525657E-02
 cg2d: Sum(rhs),rhsMax =   8.70125822324137E-04  1.27133662800212E-02
 cg2d: Sum(rhs),rhsMax =   8.70431689271886E-04  1.27134905465906E-02
 cg2d: Sum(rhs),rhsMax =   8.70735736506398E-04  1.27136146638472E-02
 cg2d: Sum(rhs),rhsMax =   8.71046644136942E-04  1.27137386374235E-02
 cg2d: Sum(rhs),rhsMax =   8.71253997149395E-04  1.27138624723364E-02
 cg2d: Sum(rhs),rhsMax =   8.71401127793539E-04  1.27139861404896E-02
 cg2d: Sum(rhs),rhsMax =   8.71549972216962E-04  1.27141096778583E-02
 cg2d: Sum(rhs),rhsMax =   8.71700621375097E-04  1.27142330690521E-02
 cg2d: Sum(rhs),rhsMax =   8.71852986664319E-04  1.27143563189930E-02
 cg2d: Sum(rhs),rhsMax =   8.72007076241970E-04  1.27144794258203E-02
 cg2d: Sum(rhs),rhsMax =   8.72162730541573E-04  1.27146023928818E-02
 cg2d: Sum(rhs),rhsMax =   8.72320008309231E-04  1.27147252194312E-02
 cg2d: Sum(rhs),rhsMax =   8.72478804249991E-04  1.27148479072754E-02
 cg2d: Sum(rhs),rhsMax =   8.72599433967051E-04  1.27149704795441E-02
 cg2d: Sum(rhs),rhsMax =   8.72720961408743E-04  1.27150928930719E-02
 cg2d: Sum(rhs),rhsMax =   8.72843367835271E-04  1.27152151717729E-02
 cg2d: Sum(rhs),rhsMax =   8.72966554048905E-04  1.27153373135171E-02
 cg2d: Sum(rhs),rhsMax =   8.73090635688302E-04  1.27154593243033E-02
 cg2d: Sum(rhs),rhsMax =   8.73215412535064E-04  1.27155812013887E-02
 cg2d: Sum(rhs),rhsMax =   8.73341000698684E-04  1.27157029435943E-02
 cg2d: Sum(rhs),rhsMax =   8.73467326222755E-04  1.27158245572767E-02
 cg2d: Sum(rhs),rhsMax =   8.73594355853796E-04  1.27159460386097E-02
 cg2d: Sum(rhs),rhsMax =   8.73722077573368E-04  1.27160673947588E-02
 cg2d: Sum(rhs),rhsMax =   8.73839390164182E-04  1.27161886190092E-02
 cg2d: Sum(rhs),rhsMax =   8.73957268635709E-04  1.27163097207373E-02
(PID.TID 0000.0001)      cg2d_init_res =   2.96694985369255E-03
(PID.TID 0000.0001)      cg2d_iters(min,last) =      -1     363
(PID.TID 0000.0001)      cg2d_last_res =   9.44821313032097E-08
(PID.TID 0000.0001) // =======================================================
(PID.TID 0000.0001) // Begin MONITOR dynamic field statistics
(PID.TID 0000.0001) // =======================================================
(PID.TID 0000.0001) %MON time_tsnumber                =                 11520
(PID.TID 0000.0001) %MON time_secondsf                =   1.3824000000000E+07
(PID.TID 0000.0001) %MON dynstat_eta_max              =   1.1601469472019E-01
(PID.TID 0000.0001) %MON dynstat_eta_min              =  -2.7882239101830E-01
(PID.TID 0000.0001) %MON dynstat_eta_mean             =  -5.2894490320295E-08
(PID.TID 0000.0001) %MON dynstat_eta_sd               =   1.0250426673311E-01
(PID.TID 0000.0001) %MON dynstat_eta_del2             =   6.1294770319804E-07
(PID.TID 0000.0001) %MON dynstat_uvel_max             =   1.0403969824284E-01
(PID.TID 0000.0001) %MON dynstat_uvel_min             =  -1.1316004225954E-01
(PID.TID 0000.0001) %MON dynstat_uvel_mean            =  -1.4509456693446E-08
(PID.TID 0000.0001) %MON dynstat_uvel_sd              =   4.2288678084918E-02
(PID.TID 0000.0001) %MON dynstat_uvel_del2            =   9.3242960326716E-07
(PID.TID 0000.0001) %MON dynstat_vvel_max             =   1.1770706135182E-01
(PID.TID 0000.0001) %MON dynstat_vvel_min             =  -9.6404653396735E-02
(PID.TID 0000.0001) %MON dynstat_vvel_mean            =   4.2292338509178E-08
(PID.TID 0000.0001) %MON dynstat_vvel_sd              =   3.9257943099284E-02
(PID.TID 0000.0001) %MON dynstat_vvel_del2            =   1.2527358911082E-06
(PID.TID 0000.0001) %MON dynstat_wvel_max             =   8.2110625319183E-09
(PID.TID 0000.0001) %MON dynstat_wvel_min             =  -1.3699999670498E-08
(PID.TID 0000.0001) %MON dynstat_wvel_mean            =   1.0450523035878E-20
(PID.TID 0000.0001) %MON dynstat_wvel_sd              =   4.6772227861312E-09
(PID.TID 0000.0001) %MON dynstat_wvel_del2            =   4.4387194350483E-14
(PID.TID 0000.0001) %MON dynstat_theta_max            =   2.0000000000000E+01
(PID.TID 0000.0001) %MON dynstat_theta_min            =   2.0000000000000E+01
(PID.TID 0000.0001) %MON dynstat_theta_mean           =   1.9999999999999E+01
(PID.TID 0000.0001) %MON dynstat_theta_sd             =   1.1972645097557E-12
(PID.TID 0000.0001) %MON dynstat_theta_del2           =   0.0000000000000E+00
(PID.TID 0000.0001) %MON dynstat_salt_max             =   3.0000000000000E+01
(PID.TID 0000.0001) %MON dynstat_salt_min             =   3.0000000000000E+01
(PID.TID 0000.0001) %MON dynstat_salt_mean            =   2.9999999999998E+01
(PID.TID 0000.0001) %MON dynstat_salt_sd              =   2.1529444893531E-12
(PID.TID 0000.0001) %MON dynstat_salt_del2            =   0.0000000000000E+00
(PID.TID 0000.0001) %MON trAdv_CFL_u_max              =   2.7157561286231E-02
(PID.TID 0000.0001) %MON trAdv_CFL_v_max              =   2.8247787867325E-02
(PID.TID 0000.0001) %MON trAdv_CFL_w_max              =   2.0457923144632E-09
(PID.TID 0000.0001) %MON advcfl_uvel_max              =   2.7158410142289E-02
(PID.TID 0000.0001) %MON advcfl_vvel_max              =   2.8249694724437E-02
(PID.TID 0000.0001) %MON advcfl_wvel_max              =   6.5759998418391E-09
(PID.TID 0000.0001) %MON advcfl_W_hf_max              =   0.0000000000000E+00
(PID.TID 0000.0001) %MON pe_b_mean                    =   1.0750227705188E-05
(PID.TID 0000.0001) %MON ke_max                       =   6.9615460684397E-03
(PID.TID 0000.0001) %MON ke_mean                      =   1.6572654805828E-03
(PID.TID 0000.0001) %MON ke_vol                       =   7.2529629296391E+15
(PID.TID 0000.0001) %MON vort_r_min                   =  -4.0501506502718E-06
(PID.TID 0000.0001) %MON vort_r_max                   =   3.2733007512147E-06
(PID.TID 0000.0001) %MON vort_a_mean                  =   1.0615000000000E-04
(PID.TID 0000.0001) %MON vort_a_sd                    =   3.6199880325018E-06
(PID.TID 0000.0001) %MON vort_p_mean                  =   1.1210870169429E-04
(PID.TID 0000.0001) %MON vort_p_sd                    =   2.1064466867414E-05
(PID.TID 0000.0001) %MON surfExpan_theta_mean         =   2.0886227361797E-19
(PID.TID 0000.0001) %MON surfExpan_salt_mean          =   3.1328918352193E-19
(PID.TID 0000.0001) // =======================================================
(PID.TID 0000.0001) // End MONITOR dynamic field statistics
(PID.TID 0000.0001) // =======================================================
 cg2d: Sum(rhs),rhsMax =   8.74075730304416E-04  1.27164306920091E-02
 cg2d: Sum(rhs),rhsMax =   8.74194653801098E-04  1.27165515380336E-02
 cg2d: Sum(rhs),rhsMax =   8.74314097691477E-04  1.27166722623819E-02
 cg2d: Sum(rhs),rhsMax =   8.74433962617471E-04  1.27167928639492E-02
 cg2d: Sum(rhs),rhsMax =   8.74554338216104E-04  1.27169133413811E-02
 cg2d: Sum(rhs),rhsMax =   8.74675133073622E-04  1.27170336987906E-02
 cg2d: Sum(rhs),rhsMax =   8.74796344831036E-04  1.27171539348872E-02
 cg2d: Sum(rhs),rhsMax =   8.74917964023636E-04  1.27172740529963E-02
 cg2d: Sum(rhs),rhsMax =   8.75039946203755E-04  1.27173940517758E-02
 cg2d: Sum(rhs),rhsMax =   8.75162291301097E-04  1.27175139344124E-02
 cg2d: Sum(rhs),rhsMax =   8.75285022628370E-04  1.27176336991116E-02
 cg2d: Sum(rhs),rhsMax =   8.75407959356856E-04  1.27177533497058E-02
 cg2d: Sum(rhs),rhsMax =   8.75531311818943E-04  1.27178728850583E-02
 cg2d: Sum(rhs),rhsMax =   8.75654950686425E-04  1.27179923081554E-02
 cg2d: Sum(rhs),rhsMax =   8.75778910805217E-04  1.27181116165512E-02
 cg2d: Sum(rhs),rhsMax =   8.75903167530587E-04  1.27182308156464E-02
 cg2d: Sum(rhs),rhsMax =   8.76027685346482E-04  1.27183499018853E-02
 cg2d: Sum(rhs),rhsMax =   8.76152480328359E-04  1.27184688814258E-02
 cg2d: Sum(rhs),rhsMax =   8.76277490719730E-04  1.27185877497048E-02
 cg2d: Sum(rhs),rhsMax =   8.76402753304799E-04  1.27187065126254E-02
 cg2d: Sum(rhs),rhsMax =   8.76528192403919E-04  1.27188251672476E-02
 cg2d: Sum(rhs),rhsMax =   8.76653853704950E-04  1.27189437160640E-02
 cg2d: Sum(rhs),rhsMax =   8.76779682603714E-04  1.27190621562224E-02
 cg2d: Sum(rhs),rhsMax =   8.76905735768775E-04  1.27191804998871E-02
 cg2d: Sum(rhs),rhsMax =   8.77031932787681E-04  1.27192987372605E-02
 cg2d: Sum(rhs),rhsMax =   8.77158343166885E-04  1.27194168744932E-02
 cg2d: Sum(rhs),rhsMax =   8.77284864055757E-04  1.27195349084772E-02
 cg2d: Sum(rhs),rhsMax =   8.77411515646501E-04  1.27196528444664E-02
 cg2d: Sum(rhs),rhsMax =   8.77538320279191E-04  1.27197706789288E-02
 cg2d: Sum(rhs),rhsMax =   8.77665230561915E-04  1.27198884174972E-02
 cg2d: Sum(rhs),rhsMax =   8.77792277927496E-04  1.27200060557069E-02
 cg2d: Sum(rhs),rhsMax =   8.77919447380967E-04  1.27201236022833E-02
 cg2d: Sum(rhs),rhsMax =   8.78046659977904E-04  1.27202410506762E-02
 cg2d: Sum(rhs),rhsMax =   8.78173992573627E-04  1.27203584064731E-02
 cg2d: Sum(rhs),rhsMax =   8.78301389325532E-04  1.27204756655165E-02
 cg2d: Sum(rhs),rhsMax =   8.78428832582347E-04  1.27205928385012E-02
 cg2d: Sum(rhs),rhsMax =   8.78556379833896E-04  1.27207099166525E-02
 cg2d: Sum(rhs),rhsMax =   8.78683966860477E-04  1.27208269051897E-02
 cg2d: Sum(rhs),rhsMax =   8.78811590131801E-04  1.27209438014127E-02
 cg2d: Sum(rhs),rhsMax =   8.78939235701245E-04  1.27210606141838E-02
 cg2d: Sum(rhs),rhsMax =   8.79066927549759E-04  1.27211773364874E-02
 cg2d: Sum(rhs),rhsMax =   8.79194616558025E-04  1.27212939725442E-02
 cg2d: Sum(rhs),rhsMax =   8.79322313520130E-04  1.27214105196131E-02
 cg2d: Sum(rhs),rhsMax =   8.79450015544334E-04  1.27215269877701E-02
 cg2d: Sum(rhs),rhsMax =   8.79577727146483E-04  1.27216433681084E-02
 cg2d: Sum(rhs),rhsMax =   8.79705417519645E-04  1.27217596684701E-02
 cg2d: Sum(rhs),rhsMax =   8.79833110701202E-04  1.27218758827087E-02
 cg2d: Sum(rhs),rhsMax =   8.79960760648181E-04  1.27219920221292E-02
 cg2d: Sum(rhs),rhsMax =   8.80088341571841E-04  1.27221080790702E-02
 cg2d: Sum(rhs),rhsMax =   8.80215892749482E-04  1.27222240570089E-02
 cg2d: Sum(rhs),rhsMax =   8.80343412827106E-04  1.27223399549067E-02
 cg2d: Sum(rhs),rhsMax =   8.80470867707542E-04  1.27224557792352E-02
 cg2d: Sum(rhs),rhsMax =   8.80598274060621E-04  1.27225715251441E-02
 cg2d: Sum(rhs),rhsMax =   8.80725600059955E-04  1.27226871964647E-02
 cg2d: Sum(rhs),rhsMax =   8.80852755312240E-04  1.27228027917977E-02
 cg2d: Sum(rhs),rhsMax =   8.80979905543136E-04  1.27229183176656E-02
 cg2d: Sum(rhs),rhsMax =   8.81106951509381E-04  1.27230337666031E-02
 cg2d: Sum(rhs),rhsMax =   8.81233911680872E-04  1.27231491482292E-02
 cg2d: Sum(rhs),rhsMax =   8.81360788958004E-04  1.27232644550511E-02
 cg2d: Sum(rhs),rhsMax =   8.81487539111899E-04  1.27233796958647E-02
 cg2d: Sum(rhs),rhsMax =   8.81614160662384E-04  1.27234948655354E-02
 cg2d: Sum(rhs),rhsMax =   8.81740614155711E-04  1.27236099725074E-02
 cg2d: Sum(rhs),rhsMax =   8.81866978423022E-04  1.27237250048873E-02
 cg2d: Sum(rhs),rhsMax =   8.81993194012148E-04  1.27238399771274E-02
 cg2d: Sum(rhs),rhsMax =   8.82119251726994E-04  1.27239548798875E-02
 cg2d: Sum(rhs),rhsMax =   8.82245186954955E-04  1.27240697246351E-02
 cg2d: Sum(rhs),rhsMax =   8.82370906043876E-04  1.27241845020500E-02
 cg2d: Sum(rhs),rhsMax =   8.82496500062733E-04  1.27242992206932E-02
 cg2d: Sum(rhs),rhsMax =   8.82621869421171E-04  1.27244138748273E-02
 cg2d: Sum(rhs),rhsMax =   8.82747083164825E-04  1.27245284726021E-02
 cg2d: Sum(rhs),rhsMax =   8.82872093102985E-04  1.27246430065915E-02
 cg2d: Sum(rhs),rhsMax =   8.82996903815195E-04  1.27247574857142E-02
(PID.TID 0000.0001)      cg2d_init_res =   2.92389847598787E-03
(PID.TID 0000.0001)      cg2d_iters(min,last) =      -1     363
(PID.TID 0000.0001)      cg2d_last_res =   9.65696653335716E-08
(PID.TID 0000.0001) // =======================================================
(PID.TID 0000.0001) // Begin MONITOR dynamic field statistics
(PID.TID 0000.0001) // =======================================================
(PID.TID 0000.0001) %MON time_tsnumber                =                 11592
(PID.TID 0000.0001) %MON time_secondsf                =   1.3910400000000E+07
(PID.TID 0000.0001) %MON dynstat_eta_max              =   1.1643891295721E-01
(PID.TID 0000.0001) %MON dynstat_eta_min              =  -2.7979501996406E-01
(PID.TID 0000.0001) %MON dynstat_eta_mean             =  -5.3477370637739E-08
(PID.TID 0000.0001) %MON dynstat_eta_sd               =   1.0277237786609E-01
(PID.TID 0000.0001) %MON dynstat_eta_del2             =   6.1482267380412E-07
(PID.TID 0000.0001) %MON dynstat_uvel_max             =   1.0442959100404E-01
(PID.TID 0000.0001) %MON dynstat_uvel_min             =  -1.1341367812442E-01
(PID.TID 0000.0001) %MON dynstat_uvel_mean            =   1.2218330689052E-08
(PID.TID 0000.0001) %MON dynstat_uvel_sd              =   4.2380585261071E-02
(PID.TID 0000.0001) %MON dynstat_uvel_del2            =   9.3366099874341E-07
(PID.TID 0000.0001) %MON dynstat_vvel_max             =   1.1827829496896E-01
(PID.TID 0000.0001) %MON dynstat_vvel_min             =  -9.6971819517131E-02
(PID.TID 0000.0001) %MON dynstat_vvel_mean            =   4.3874202957463E-08
(PID.TID 0000.0001) %MON dynstat_vvel_sd              =   3.9428142658463E-02
(PID.TID 0000.0001) %MON dynstat_vvel_del2            =   1.2535786627104E-06
(PID.TID 0000.0001) %MON dynstat_wvel_max             =   7.5341021362692E-09
(PID.TID 0000.0001) %MON dynstat_wvel_min             =  -1.3278529119489E-08
(PID.TID 0000.0001) %MON dynstat_wvel_mean            =   5.5842468662574E-21
(PID.TID 0000.0001) %MON dynstat_wvel_sd              =   4.6382198202908E-09
(PID.TID 0000.0001) %MON dynstat_wvel_del2            =   4.3807603983907E-14
(PID.TID 0000.0001) %MON dynstat_theta_max            =   2.0000000000000E+01
(PID.TID 0000.0001) %MON dynstat_theta_min            =   2.0000000000000E+01
(PID.TID 0000.0001) %MON dynstat_theta_mean           =   1.9999999999999E+01
(PID.TID 0000.0001) %MON dynstat_theta_sd             =   1.1972645097557E-12
(PID.TID 0000.0001) %MON dynstat_theta_del2           =   0.0000000000000E+00
(PID.TID 0000.0001) %MON dynstat_salt_max             =   3.0000000000000E+01
(PID.TID 0000.0001) %MON dynstat_salt_min             =   3.0000000000000E+01
(PID.TID 0000.0001) %MON dynstat_salt_mean            =   2.9999999999998E+01
(PID.TID 0000.0001) %MON dynstat_salt_sd              =   2.1529444893531E-12
(PID.TID 0000.0001) %MON dynstat_salt_del2            =   0.0000000000000E+00
(PID.TID 0000.0001) %MON trAdv_CFL_u_max              =   2.7218439663782E-02
(PID.TID 0000.0001) %MON trAdv_CFL_v_max              =   2.8384890689838E-02
(PID.TID 0000.0001) %MON trAdv_CFL_w_max              =   1.8869956676135E-09
(PID.TID 0000.0001) %MON advcfl_uvel_max              =   2.7219282749862E-02
(PID.TID 0000.0001) %MON advcfl_vvel_max              =   2.8386790792550E-02
(PID.TID 0000.0001) %MON advcfl_wvel_max              =   6.3736939773546E-09
(PID.TID 0000.0001) %MON advcfl_W_hf_max              =   0.0000000000000E+00
(PID.TID 0000.0001) %MON pe_b_mean                    =   1.0806538047179E-05
(PID.TID 0000.0001) %MON ke_max                       =   7.0290936652185E-03
(PID.TID 0000.0001) %MON ke_mean                      =   1.6678048493594E-03
(PID.TID 0000.0001) %MON ke_vol                       =   7.2529629296391E+15
(PID.TID 0000.0001) %MON vort_r_min                   =  -4.0526864486303E-06
(PID.TID 0000.0001) %MON vort_r_max                   =   3.2767140676488E-06
(PID.TID 0000.0001) %MON vort_a_mean                  =   1.0615000000000E-04
(PID.TID 0000.0001) %MON vort_a_sd                    =   3.6203056502847E-06
(PID.TID 0000.0001) %MON vort_p_mean                  =   1.1210870169429E-04
(PID.TID 0000.0001) %MON vort_p_sd                    =   2.1064601366734E-05
(PID.TID 0000.0001) %MON surfExpan_theta_mean         =   1.1158103590408E-19
(PID.TID 0000.0001) %MON surfExpan_salt_mean          =   1.6735451473228E-19
(PID.TID 0000.0001) // =======================================================
(PID.TID 0000.0001) // End MONITOR dynamic field statistics
(PID.TID 0000.0001) // =======================================================
 cg2d: Sum(rhs),rhsMax =   8.83121544082368E-04  1.27248719039247E-02
 cg2d: Sum(rhs),rhsMax =   8.83245946222213E-04  1.27249862692542E-02
 cg2d: Sum(rhs),rhsMax =   8.83370117150261E-04  1.27251005758765E-02
 cg2d: Sum(rhs),rhsMax =   8.83494078057960E-04  1.27252148312375E-02
 cg2d: Sum(rhs),rhsMax =   8.83617781179567E-04  1.27253290306509E-02
 cg2d: Sum(rhs),rhsMax =   8.83741260775372E-04  1.27254431781206E-02
 cg2d: Sum(rhs),rhsMax =   8.83864500567298E-04  1.27255572717546E-02
 cg2d: Sum(rhs),rhsMax =   8.83987493964121E-04  1.27256713179521E-02
 cg2d: Sum(rhs),rhsMax =   8.84110209536160E-04  1.27257853123138E-02
 cg2d: Sum(rhs),rhsMax =   8.84232644740201E-04  1.27258992572406E-02
 cg2d: Sum(rhs),rhsMax =   8.84354821862618E-04  1.27260131521970E-02
 cg2d: Sum(rhs),rhsMax =   8.84487817920832E-04  1.27261270039717E-02
 cg2d: Sum(rhs),rhsMax =   8.84620449077460E-04  1.27262408084294E-02
 cg2d: Sum(rhs),rhsMax =   8.84752754237196E-04  1.27263545660476E-02
 cg2d: Sum(rhs),rhsMax =   8.84884625722520E-04  1.27264682808926E-02
 cg2d: Sum(rhs),rhsMax =   8.85016202289011E-04  1.27265819480386E-02
 cg2d: Sum(rhs),rhsMax =   8.85147353987929E-04  1.27266955745484E-02
 cg2d: Sum(rhs),rhsMax =   8.85278182837693E-04  1.27268091587668E-02
 cg2d: Sum(rhs),rhsMax =   8.85408496944386E-04  1.27269227059348E-02
 cg2d: Sum(rhs),rhsMax =   8.85538507477197E-04  1.27270362094444E-02
 cg2d: Sum(rhs),rhsMax =   8.85668121810384E-04  1.27271496731351E-02
 cg2d: Sum(rhs),rhsMax =   8.85797330687660E-04  1.27272630998927E-02
 cg2d: Sum(rhs),rhsMax =   8.85926109338414E-04  1.27273764885790E-02
 cg2d: Sum(rhs),rhsMax =   8.86054433003665E-04  1.27274898436067E-02
 cg2d: Sum(rhs),rhsMax =   8.86182360776566E-04  1.27276031633298E-02
 cg2d: Sum(rhs),rhsMax =   8.86309748289861E-04  1.27277164466301E-02
 cg2d: Sum(rhs),rhsMax =   8.86436777890302E-04  1.27278296941542E-02
 cg2d: Sum(rhs),rhsMax =   8.86563323191260E-04  1.27279429124012E-02
 cg2d: Sum(rhs),rhsMax =   8.86689416884006E-04  1.27280560981423E-02
 cg2d: Sum(rhs),rhsMax =   8.86815057274299E-04  1.27281692532987E-02
 cg2d: Sum(rhs),rhsMax =   8.86940153980399E-04  1.27282823761295E-02
 cg2d: Sum(rhs),rhsMax =   8.87064813973005E-04  1.27283954730297E-02
 cg2d: Sum(rhs),rhsMax =   8.87188997615872E-04  1.27285085370158E-02
 cg2d: Sum(rhs),rhsMax =   8.87351085080784E-04  1.27286215562508E-02
 cg2d: Sum(rhs),rhsMax =   8.87512359864446E-04  1.27287345677077E-02
 cg2d: Sum(rhs),rhsMax =   8.87672844811558E-04  1.27288475559256E-02
 cg2d: Sum(rhs),rhsMax =   8.87832532151392E-04  1.27289605185406E-02
 cg2d: Sum(rhs),rhsMax =   8.87991394062607E-04  1.27290734588555E-02
 cg2d: Sum(rhs),rhsMax =   8.88149459781797E-04  1.27291863748645E-02
 cg2d: Sum(rhs),rhsMax =   8.88306689202620E-04  1.27292992699905E-02
 cg2d: Sum(rhs),rhsMax =   8.88463105812809E-04  1.27294121435056E-02
 cg2d: Sum(rhs),rhsMax =   8.88618632233934E-04  1.27295249991767E-02
 cg2d: Sum(rhs),rhsMax =   8.88773380602316E-04  1.27296378314450E-02
 cg2d: Sum(rhs),rhsMax =   8.88927290993775E-04  1.27297506459711E-02
 cg2d: Sum(rhs),rhsMax =   8.89080394911642E-04  1.27298634452723E-02
 cg2d: Sum(rhs),rhsMax =   8.89232641332598E-04  1.27299762296361E-02
 cg2d: Sum(rhs),rhsMax =   8.89384070338782E-04  1.27300889933388E-02
 cg2d: Sum(rhs),rhsMax =   8.89534683872690E-04  1.27302017433117E-02
 cg2d: Sum(rhs),rhsMax =   8.89684443304853E-04  1.27303144804053E-02
 cg2d: Sum(rhs),rhsMax =   8.89833371629938E-04  1.27304272048345E-02
 cg2d: Sum(rhs),rhsMax =   8.89981483021574E-04  1.27305399148531E-02
 cg2d: Sum(rhs),rhsMax =   8.90128782957769E-04  1.27306526137851E-02
 cg2d: Sum(rhs),rhsMax =   8.90285851094524E-04  1.27307653074157E-02
 cg2d: Sum(rhs),rhsMax =   8.90442007592583E-04  1.27308779876594E-02
 cg2d: Sum(rhs),rhsMax =   8.90597278164961E-04  1.27309906589416E-02
 cg2d: Sum(rhs),rhsMax =   8.90751629823886E-04  1.27311033225633E-02
 cg2d: Sum(rhs),rhsMax =   8.90905155590302E-04  1.27312159773445E-02
 cg2d: Sum(rhs),rhsMax =   8.91057760343239E-04  1.27313286270025E-02
 cg2d: Sum(rhs),rhsMax =   8.91209553166546E-04  1.27314412710325E-02
 cg2d: Sum(rhs),rhsMax =   8.91360448100656E-04  1.27315539135601E-02
 cg2d: Sum(rhs),rhsMax =   8.91510562757660E-04  1.27316665479742E-02
 cg2d: Sum(rhs),rhsMax =   8.91659793791478E-04  1.27317791833922E-02
 cg2d: Sum(rhs),rhsMax =   8.91808253776773E-04  1.27318918137804E-02
 cg2d: Sum(rhs),rhsMax =   8.91955877408361E-04  1.27320044468684E-02
 cg2d: Sum(rhs),rhsMax =   8.92102761527205E-04  1.27321170774912E-02
 cg2d: Sum(rhs),rhsMax =   8.92248876691851E-04  1.27322297101492E-02
 cg2d: Sum(rhs),rhsMax =   8.92394250886379E-04  1.27323423433189E-02
 cg2d: Sum(rhs),rhsMax =   8.92538909276770E-04  1.27324549797118E-02
 cg2d: Sum(rhs),rhsMax =   8.92682875337390E-04  1.27325676188786E-02
 cg2d: Sum(rhs),rhsMax =   8.92874740374569E-04  1.27326802736989E-02
 cg2d: Sum(rhs),rhsMax =   8.93065641283719E-04  1.27327929196725E-02
 cg2d: Sum(rhs),rhsMax =   8.93255574888160E-04  1.27329055751701E-02
(PID.TID 0000.0001)      cg2d_init_res =   2.88543558143741E-03
(PID.TID 0000.0001)      cg2d_iters(min,last) =      -1     354
(PID.TID 0000.0001)      cg2d_last_res =   9.86864063286776E-08
(PID.TID 0000.0001) // =======================================================
(PID.TID 0000.0001) // Begin MONITOR dynamic field statistics
(PID.TID 0000.0001) // =======================================================
(PID.TID 0000.0001) %MON time_tsnumber                =                 11664
(PID.TID 0000.0001) %MON time_secondsf                =   1.3996800000000E+07
(PID.TID 0000.0001) %MON dynstat_eta_max              =   1.1682540793762E-01
(PID.TID 0000.0001) %MON dynstat_eta_min              =  -2.8073597974693E-01
(PID.TID 0000.0001) %MON dynstat_eta_mean             =  -5.4137117479183E-08
(PID.TID 0000.0001) %MON dynstat_eta_sd               =   1.0303443433199E-01
(PID.TID 0000.0001) %MON dynstat_eta_del2             =   6.1662151246652E-07
(PID.TID 0000.0001) %MON dynstat_uvel_max             =   1.0483895873909E-01
(PID.TID 0000.0001) %MON dynstat_uvel_min             =  -1.1367036849708E-01
(PID.TID 0000.0001) %MON dynstat_uvel_mean            =   3.7419742908918E-08
(PID.TID 0000.0001) %MON dynstat_uvel_sd              =   4.2473697146096E-02
(PID.TID 0000.0001) %MON dynstat_uvel_del2            =   9.3507300318590E-07
(PID.TID 0000.0001) %MON dynstat_vvel_max             =   1.1884746434651E-01
(PID.TID 0000.0001) %MON dynstat_vvel_min             =  -9.7558043469947E-02
(PID.TID 0000.0001) %MON dynstat_vvel_mean            =   4.1051747896386E-08
(PID.TID 0000.0001) %MON dynstat_vvel_sd              =   3.9592308266495E-02
(PID.TID 0000.0001) %MON dynstat_vvel_del2            =   1.2535226004160E-06
(PID.TID 0000.0001) %MON dynstat_wvel_max             =   7.0833155419677E-09
(PID.TID 0000.0001) %MON dynstat_wvel_min             =  -1.2832053687889E-08
(PID.TID 0000.0001) %MON dynstat_wvel_mean            =  -1.6038424397809E-21
(PID.TID 0000.0001) %MON dynstat_wvel_sd              =   4.6009711679421E-09
(PID.TID 0000.0001) %MON dynstat_wvel_del2            =   4.3245984904510E-14
(PID.TID 0000.0001) %MON dynstat_theta_max            =   2.0000000000000E+01
(PID.TID 0000.0001) %MON dynstat_theta_min            =   2.0000000000000E+01
(PID.TID 0000.0001) %MON dynstat_theta_mean           =   1.9999999999999E+01
(PID.TID 0000.0001) %MON dynstat_theta_sd             =   1.1972645097557E-12
(PID.TID 0000.0001) %MON dynstat_theta_del2           =   0.0000000000000E+00
(PID.TID 0000.0001) %MON dynstat_salt_max             =   3.0000000000000E+01
(PID.TID 0000.0001) %MON dynstat_salt_min             =   3.0000000000000E+01
(PID.TID 0000.0001) %MON dynstat_salt_mean            =   2.9999999999998E+01
(PID.TID 0000.0001) %MON dynstat_salt_sd              =   2.1529444893531E-12
(PID.TID 0000.0001) %MON dynstat_salt_del2            =   0.0000000000000E+00
(PID.TID 0000.0001) %MON trAdv_CFL_u_max              =   2.7280022662875E-02
(PID.TID 0000.0001) %MON trAdv_CFL_v_max              =   2.8521500433287E-02
(PID.TID 0000.0001) %MON trAdv_CFL_w_max              =   1.7717781708641E-09
(PID.TID 0000.0001) %MON advcfl_uvel_max              =   2.7280888439299E-02
(PID.TID 0000.0001) %MON advcfl_vvel_max              =   2.8523391443163E-02
(PID.TID 0000.0001) %MON advcfl_wvel_max              =   6.1593857701868E-09
(PID.TID 0000.0001) %MON advcfl_W_hf_max              =   0.0000000000000E+00
(PID.TID 0000.0001) %MON pe_b_mean                    =   1.0861718899266E-05
(PID.TID 0000.0001) %MON ke_max                       =   7.0969871815834E-03
(PID.TID 0000.0001) %MON ke_mean                      =   1.6781945611208E-03
(PID.TID 0000.0001) %MON ke_vol                       =   7.2529629296391E+15
(PID.TID 0000.0001) %MON vort_r_min                   =  -4.0550587462293E-06
(PID.TID 0000.0001) %MON vort_r_max                   =   3.2761802076781E-06
(PID.TID 0000.0001) %MON vort_a_mean                  =   1.0615000000000E-04
(PID.TID 0000.0001) %MON vort_a_sd                    =   3.6206111060299E-06
(PID.TID 0000.0001) %MON vort_p_mean                  =   1.1210870169429E-04
(PID.TID 0000.0001) %MON vort_p_sd                    =   2.1064726570744E-05
(PID.TID 0000.0001) %MON surfExpan_theta_mean         =  -3.2270466144474E-20
(PID.TID 0000.0001) %MON surfExpan_salt_mean          =  -4.8407559054925E-20
(PID.TID 0000.0001) // =======================================================
(PID.TID 0000.0001) // End MONITOR dynamic field statistics
(PID.TID 0000.0001) // =======================================================
 cg2d: Sum(rhs),rhsMax =   8.93444586975057E-04  1.27330182348821E-02
 cg2d: Sum(rhs),rhsMax =   8.93632698475895E-04  1.27331309063358E-02
 cg2d: Sum(rhs),rhsMax =   8.93819966641261E-04  1.27332435803981E-02
 cg2d: Sum(rhs),rhsMax =   8.94006434663596E-04  1.27333562691434E-02
 cg2d: Sum(rhs),rhsMax =   8.94192142477702E-04  1.27334689632570E-02
 cg2d: Sum(rhs),rhsMax =   8.94377140107120E-04  1.27335816737209E-02
 cg2d: Sum(rhs),rhsMax =   8.94561392894724E-04  1.27336943924849E-02
 cg2d: Sum(rhs),rhsMax =   8.94745065370366E-04  1.27338071262636E-02
 cg2d: Sum(rhs),rhsMax =   8.94928168554425E-04  1.27339198700674E-02
 cg2d: Sum(rhs),rhsMax =   8.95110755512428E-04  1.27340326328008E-02
 cg2d: Sum(rhs),rhsMax =   8.95292816838231E-04  1.27341454060207E-02
 cg2d: Sum(rhs),rhsMax =   8.95474490431451E-04  1.27342581994193E-02
 cg2d: Sum(rhs),rhsMax =   8.95655765601614E-04  1.27343710057132E-02
 cg2d: Sum(rhs),rhsMax =   8.95836685053055E-04  1.27344838337625E-02
 cg2d: Sum(rhs),rhsMax =   8.96017340357106E-04  1.27345966766155E-02
 cg2d: Sum(rhs),rhsMax =   8.96197757903894E-04  1.27347095429710E-02
 cg2d: Sum(rhs),rhsMax =   8.96377974444067E-04  1.27348224251405E-02
 cg2d: Sum(rhs),rhsMax =   8.96558022825487E-04  1.27349353308525E-02
 cg2d: Sum(rhs),rhsMax =   8.96738062598375E-04  1.27350482582099E-02
 cg2d: Sum(rhs),rhsMax =   8.96918055942195E-04  1.27351612102213E-02
 cg2d: Sum(rhs),rhsMax =   8.97098105335099E-04  1.27352741817141E-02
 cg2d: Sum(rhs),rhsMax =   8.97278214907952E-04  1.27353871817933E-02
 cg2d: Sum(rhs),rhsMax =   8.97458522650284E-04  1.27355002024161E-02
 cg2d: Sum(rhs),rhsMax =   8.97638980836864E-04  1.27356132536259E-02
 cg2d: Sum(rhs),rhsMax =   8.97819717422779E-04  1.27357263270215E-02
 cg2d: Sum(rhs),rhsMax =   8.98000771811739E-04  1.27358394328687E-02
 cg2d: Sum(rhs),rhsMax =   8.98182169673196E-04  1.27359525625586E-02
 cg2d: Sum(rhs),rhsMax =   8.98364021608580E-04  1.27360657265807E-02
 cg2d: Sum(rhs),rhsMax =   8.98546344809684E-04  1.27361789163674E-02
 cg2d: Sum(rhs),rhsMax =   8.98729189802576E-04  1.27362921404397E-02
 cg2d: Sum(rhs),rhsMax =   8.98912685941273E-04  1.27364053912986E-02
 cg2d: Sum(rhs),rhsMax =   8.99096788694110E-04  1.27365186810364E-02
 cg2d: Sum(rhs),rhsMax =   8.99281614245392E-04  1.27366319994765E-02
 cg2d: Sum(rhs),rhsMax =   8.99467245076117E-04  1.27367453552127E-02
 cg2d: Sum(rhs),rhsMax =   8.99653656230712E-04  1.27368587402259E-02
 cg2d: Sum(rhs),rhsMax =   8.99840956619663E-04  1.27369721681913E-02
 cg2d: Sum(rhs),rhsMax =   9.00029186263527E-04  1.27370856283248E-02
 cg2d: Sum(rhs),rhsMax =   9.00218442724162E-04  1.27371991292290E-02
 cg2d: Sum(rhs),rhsMax =   9.00408691515373E-04  1.27373126631118E-02
 cg2d: Sum(rhs),rhsMax =   9.00600055034452E-04  1.27374262404116E-02
 cg2d: Sum(rhs),rhsMax =   9.00792574295055E-04  1.27375398551565E-02
 cg2d: Sum(rhs),rhsMax =   9.00986263190044E-04  1.27376535121510E-02
 cg2d: Sum(rhs),rhsMax =   9.01181242585673E-04  1.27377672068851E-02
 cg2d: Sum(rhs),rhsMax =   9.01377537047821E-04  1.27378809497212E-02
 cg2d: Sum(rhs),rhsMax =   9.01575198772039E-04  1.27379947296694E-02
 cg2d: Sum(rhs),rhsMax =   9.01774316968678E-04  1.27381085585283E-02
 cg2d: Sum(rhs),rhsMax =   9.01974883091100E-04  1.27382224266709E-02
 cg2d: Sum(rhs),rhsMax =   9.02176971339886E-04  1.27383363460237E-02
 cg2d: Sum(rhs),rhsMax =   9.02329728828307E-04  1.27384502959338E-02
 cg2d: Sum(rhs),rhsMax =   9.02483507777781E-04  1.27385643083860E-02
 cg2d: Sum(rhs),rhsMax =   9.02638548663784E-04  1.27386783620949E-02
 cg2d: Sum(rhs),rhsMax =   9.02794786756001E-04  1.27387924710259E-02
 cg2d: Sum(rhs),rhsMax =   9.02952258099473E-04  1.27389066231759E-02
 cg2d: Sum(rhs),rhsMax =   9.03111039571702E-04  1.27390208288832E-02
 cg2d: Sum(rhs),rhsMax =   9.03271115222560E-04  1.27391350823151E-02
 cg2d: Sum(rhs),rhsMax =   9.03432532016820E-04  1.27392493910466E-02
 cg2d: Sum(rhs),rhsMax =   9.03595288004199E-04  1.27393637499418E-02
 cg2d: Sum(rhs),rhsMax =   9.03759468078774E-04  1.27394781634904E-02
 cg2d: Sum(rhs),rhsMax =   9.03925032528763E-04  1.27395926269369E-02
 cg2d: Sum(rhs),rhsMax =   9.04092070410534E-04  1.27397071503681E-02
 cg2d: Sum(rhs),rhsMax =   9.04260537439739E-04  1.27398217255684E-02
 cg2d: Sum(rhs),rhsMax =   9.04419420895959E-04  1.27399363554774E-02
 cg2d: Sum(rhs),rhsMax =   9.04579690028169E-04  1.27400510446993E-02
 cg2d: Sum(rhs),rhsMax =   9.04741406422988E-04  1.27401657922718E-02
 cg2d: Sum(rhs),rhsMax =   9.04904507125985E-04  1.27402805974845E-02
 cg2d: Sum(rhs),rhsMax =   9.05069107512178E-04  1.27403954627229E-02
 cg2d: Sum(rhs),rhsMax =   9.05235119229072E-04  1.27405103878687E-02
 cg2d: Sum(rhs),rhsMax =   9.05402630511924E-04  1.27406253740537E-02
 cg2d: Sum(rhs),rhsMax =   9.05571684025611E-04  1.27407404224079E-02
 cg2d: Sum(rhs),rhsMax =   9.05742265643800E-04  1.27408555310544E-02
 cg2d: Sum(rhs),rhsMax =   9.05914371391685E-04  1.27409707039452E-02
 cg2d: Sum(rhs),rhsMax =   9.06088037859005E-04  1.27410859391438E-02
(PID.TID 0000.0001)      cg2d_init_res =   2.85280626784828E-03
(PID.TID 0000.0001)      cg2d_iters(min,last) =      -1     359
(PID.TID 0000.0001)      cg2d_last_res =   9.79310935215493E-08
(PID.TID 0000.0001) // =======================================================
(PID.TID 0000.0001) // Begin MONITOR dynamic field statistics
(PID.TID 0000.0001) // =======================================================
(PID.TID 0000.0001) %MON time_tsnumber                =                 11736
(PID.TID 0000.0001) %MON time_secondsf                =   1.4083200000000E+07
(PID.TID 0000.0001) %MON dynstat_eta_max              =   1.1715386865357E-01
(PID.TID 0000.0001) %MON dynstat_eta_min              =  -2.8165298704508E-01
(PID.TID 0000.0001) %MON dynstat_eta_mean             =  -5.4949137835996E-08
(PID.TID 0000.0001) %MON dynstat_eta_sd               =   1.0329123010342E-01
(PID.TID 0000.0001) %MON dynstat_eta_del2             =   6.1834944027208E-07
(PID.TID 0000.0001) %MON dynstat_uvel_max             =   1.0526964405113E-01
(PID.TID 0000.0001) %MON dynstat_uvel_min             =  -1.1393072145467E-01
(PID.TID 0000.0001) %MON dynstat_uvel_mean            =   6.0130335193752E-08
(PID.TID 0000.0001) %MON dynstat_uvel_sd              =   4.2569498191143E-02
(PID.TID 0000.0001) %MON dynstat_uvel_del2            =   9.3668788968113E-07
(PID.TID 0000.0001) %MON dynstat_vvel_max             =   1.1941165755047E-01
(PID.TID 0000.0001) %MON dynstat_vvel_min             =  -9.8172515921685E-02
(PID.TID 0000.0001) %MON dynstat_vvel_mean            =   3.4178561615772E-08
(PID.TID 0000.0001) %MON dynstat_vvel_sd              =   3.9749039874450E-02
(PID.TID 0000.0001) %MON dynstat_vvel_del2            =   1.2526583512546E-06
(PID.TID 0000.0001) %MON dynstat_wvel_max             =   6.5468061249703E-09
(PID.TID 0000.0001) %MON dynstat_wvel_min             =  -1.2652231510729E-08
(PID.TID 0000.0001) %MON dynstat_wvel_mean            =   4.1569833578579E-21
(PID.TID 0000.0001) %MON dynstat_wvel_sd              =   4.5627808745588E-09
(PID.TID 0000.0001) %MON dynstat_wvel_del2            =   4.2673341366980E-14
(PID.TID 0000.0001) %MON dynstat_theta_max            =   2.0000000000000E+01
(PID.TID 0000.0001) %MON dynstat_theta_min            =   2.0000000000000E+01
(PID.TID 0000.0001) %MON dynstat_theta_mean           =   1.9999999999999E+01
(PID.TID 0000.0001) %MON dynstat_theta_sd             =   1.1972645097557E-12
(PID.TID 0000.0001) %MON dynstat_theta_del2           =   0.0000000000000E+00
(PID.TID 0000.0001) %MON dynstat_salt_max             =   3.0000000000000E+01
(PID.TID 0000.0001) %MON dynstat_salt_min             =   3.0000000000000E+01
(PID.TID 0000.0001) %MON dynstat_salt_mean            =   2.9999999999998E+01
(PID.TID 0000.0001) %MON dynstat_salt_sd              =   2.1529444893531E-12
(PID.TID 0000.0001) %MON dynstat_salt_del2            =   0.0000000000000E+00
(PID.TID 0000.0001) %MON trAdv_CFL_u_max              =   2.7342502545630E-02
(PID.TID 0000.0001) %MON trAdv_CFL_v_max              =   2.8656928319336E-02
(PID.TID 0000.0001) %MON trAdv_CFL_w_max              =   1.6350624413405E-09
(PID.TID 0000.0001) %MON advcfl_uvel_max              =   2.7343373149120E-02
(PID.TID 0000.0001) %MON advcfl_vvel_max              =   2.8658797812112E-02
(PID.TID 0000.0001) %MON advcfl_wvel_max              =   6.0730711251497E-09
(PID.TID 0000.0001) %MON advcfl_W_hf_max              =   0.0000000000000E+00
(PID.TID 0000.0001) %MON pe_b_mean                    =   1.0915928336313E-05
(PID.TID 0000.0001) %MON ke_max                       =   7.1649322402651E-03
(PID.TID 0000.0001) %MON ke_mean                      =   1.6884394982641E-03
(PID.TID 0000.0001) %MON ke_vol                       =   7.2529629296391E+15
(PID.TID 0000.0001) %MON vort_r_min                   =  -4.0573813925095E-06
(PID.TID 0000.0001) %MON vort_r_max                   =   3.2723335530419E-06
(PID.TID 0000.0001) %MON vort_a_mean                  =   1.0615000000000E-04
(PID.TID 0000.0001) %MON vort_a_sd                    =   3.6209057540658E-06
(PID.TID 0000.0001) %MON vort_p_mean                  =   1.1210870169429E-04
(PID.TID 0000.0001) %MON vort_p_sd                    =   2.1064840893771E-05
(PID.TID 0000.0001) %MON surfExpan_theta_mean         =   8.3022097653551E-20
(PID.TID 0000.0001) %MON surfExpan_salt_mean          =   1.2454648471398E-19
(PID.TID 0000.0001) // =======================================================
(PID.TID 0000.0001) // End MONITOR dynamic field statistics
(PID.TID 0000.0001) // =======================================================
 cg2d: Sum(rhs),rhsMax =   9.06263229403310E-04  1.27412012404761E-02
 cg2d: Sum(rhs),rhsMax =   9.06440034021298E-04  1.27413166050995E-02
 cg2d: Sum(rhs),rhsMax =   9.06618425281086E-04  1.27414320374537E-02
 cg2d: Sum(rhs),rhsMax =   9.06798455851125E-04  1.27415475359880E-02
 cg2d: Sum(rhs),rhsMax =   9.06938788339877E-04  1.27416631262728E-02
 cg2d: Sum(rhs),rhsMax =   9.07080232554537E-04  1.27417787596867E-02
 cg2d: Sum(rhs),rhsMax =   9.07222888333841E-04  1.27418944657590E-02
 cg2d: Sum(rhs),rhsMax =   9.07366694532761E-04  1.27420102372434E-02
 cg2d: Sum(rhs),rhsMax =   9.07511690026341E-04  1.27421260821580E-02
 cg2d: Sum(rhs),rhsMax =   9.07657875013805E-04  1.27422419953657E-02
 cg2d: Sum(rhs),rhsMax =   9.07805209907237E-04  1.27423579848787E-02
 cg2d: Sum(rhs),rhsMax =   9.07953741512363E-04  1.27424740422200E-02
 cg2d: Sum(rhs),rhsMax =   9.08091383277881E-04  1.27425901730423E-02
 cg2d: Sum(rhs),rhsMax =   9.08230025759621E-04  1.27427063787429E-02
 cg2d: Sum(rhs),rhsMax =   9.08369799787430E-04  1.27428226612602E-02
 cg2d: Sum(rhs),rhsMax =   9.08510591826615E-04  1.27429390181253E-02
 cg2d: Sum(rhs),rhsMax =   9.08652471138751E-04  1.27430554523800E-02
 cg2d: Sum(rhs),rhsMax =   9.08795407188792E-04  1.27431719628121E-02
 cg2d: Sum(rhs),rhsMax =   9.08939418681403E-04  1.27432885516071E-02
 cg2d: Sum(rhs),rhsMax =   9.09084497526066E-04  1.27434052183738E-02
 cg2d: Sum(rhs),rhsMax =   9.09230614848402E-04  1.27435219650654E-02
 cg2d: Sum(rhs),rhsMax =   9.09335546989342E-04  1.27436387643266E-02
 cg2d: Sum(rhs),rhsMax =   9.09441094314423E-04  1.27437556708477E-02
 cg2d: Sum(rhs),rhsMax =   9.09547363362804E-04  1.27438726588642E-02
 cg2d: Sum(rhs),rhsMax =   9.09654180681599E-04  1.27439897293399E-02
 cg2d: Sum(rhs),rhsMax =   9.09761708780968E-04  1.27441068810064E-02
 cg2d: Sum(rhs),rhsMax =   9.09869889468021E-04  1.27442241180749E-02
 cg2d: Sum(rhs),rhsMax =   9.09978752960517E-04  1.27443414375014E-02
 cg2d: Sum(rhs),rhsMax =   9.10088219897496E-04  1.27444588438361E-02
 cg2d: Sum(rhs),rhsMax =   9.10198324672337E-04  1.27445763339214E-02
 cg2d: Sum(rhs),rhsMax =   9.10309110960768E-04  1.27446939116899E-02
 cg2d: Sum(rhs),rhsMax =   9.10420503614289E-04  1.27448115775333E-02
 cg2d: Sum(rhs),rhsMax =   9.10532562142104E-04  1.27449293292390E-02
 cg2d: Sum(rhs),rhsMax =   9.10645211235770E-04  1.27450471695011E-02
 cg2d: Sum(rhs),rhsMax =   9.10758554770252E-04  1.27451650989026E-02
 cg2d: Sum(rhs),rhsMax =   9.10872507872734E-04  1.27452831191944E-02
 cg2d: Sum(rhs),rhsMax =   9.10987079062479E-04  1.27454012298148E-02
 cg2d: Sum(rhs),rhsMax =   9.11102319487225E-04  1.27455194294808E-02
 cg2d: Sum(rhs),rhsMax =   9.11218162706258E-04  1.27456377217016E-02
 cg2d: Sum(rhs),rhsMax =   9.11334641716837E-04  1.27457561070472E-02
 cg2d: Sum(rhs),rhsMax =   9.11451750233702E-04  1.27458745853376E-02
 cg2d: Sum(rhs),rhsMax =   9.11569470084814E-04  1.27459931588562E-02
 cg2d: Sum(rhs),rhsMax =   9.11687797600811E-04  1.27461118242214E-02
 cg2d: Sum(rhs),rhsMax =   9.11806750355236E-04  1.27462305846159E-02
 cg2d: Sum(rhs),rhsMax =   9.11926301959619E-04  1.27463494437040E-02
 cg2d: Sum(rhs),rhsMax =   9.12046466466313E-04  1.27464683992537E-02
 cg2d: Sum(rhs),rhsMax =   9.12167246905593E-04  1.27465874509807E-02
 cg2d: Sum(rhs),rhsMax =   9.12288634469519E-04  1.27467066008547E-02
 cg2d: Sum(rhs),rhsMax =   9.12410646913189E-04  1.27468258491157E-02
 cg2d: Sum(rhs),rhsMax =   9.12533237514227E-04  1.27469451988702E-02
 cg2d: Sum(rhs),rhsMax =   9.12656450971367E-04  1.27470646452141E-02
 cg2d: Sum(rhs),rhsMax =   9.12780267754874E-04  1.27471841933019E-02
 cg2d: Sum(rhs),rhsMax =   9.12904685770407E-04  1.27473038427036E-02
 cg2d: Sum(rhs),rhsMax =   9.12999990330574E-04  1.27474236208073E-02
 cg2d: Sum(rhs),rhsMax =   9.13095708904348E-04  1.27475434746163E-02
 cg2d: Sum(rhs),rhsMax =   9.13191738668618E-04  1.27476634325403E-02
 cg2d: Sum(rhs),rhsMax =   9.13288213191471E-04  1.27477834939886E-02
 cg2d: Sum(rhs),rhsMax =   9.13385089329106E-04  1.27479036582395E-02
 cg2d: Sum(rhs),rhsMax =   9.13482407085537E-04  1.27480239289971E-02
 cg2d: Sum(rhs),rhsMax =   9.13580082035122E-04  1.27481443050181E-02
 cg2d: Sum(rhs),rhsMax =   9.13678168413546E-04  1.27482647877579E-02
 cg2d: Sum(rhs),rhsMax =   9.13776614712786E-04  1.27483853790006E-02
 cg2d: Sum(rhs),rhsMax =   9.13875449502579E-04  1.27485060794886E-02
 cg2d: Sum(rhs),rhsMax =   9.13974659206595E-04  1.27486268859059E-02
 cg2d: Sum(rhs),rhsMax =   9.14074269515622E-04  1.27487478012920E-02
 cg2d: Sum(rhs),rhsMax =   9.14174234836888E-04  1.27488688266765E-02
 cg2d: Sum(rhs),rhsMax =   9.14274600954824E-04  1.27489899640356E-02
 cg2d: Sum(rhs),rhsMax =   9.14375335550227E-04  1.27491112117547E-02
 cg2d: Sum(rhs),rhsMax =   9.14476437388087E-04  1.27492325711359E-02
 cg2d: Sum(rhs),rhsMax =   9.14577937261778E-04  1.27493540411713E-02
 cg2d: Sum(rhs),rhsMax =   9.14679771714040E-04  1.27494756249128E-02
 cg2d: Sum(rhs),rhsMax =   9.14782001479398E-04  1.27495973230915E-02
(PID.TID 0000.0001)      cg2d_init_res =   2.82642437738558E-03
(PID.TID 0000.0001)      cg2d_iters(min,last) =      -1     369
(PID.TID 0000.0001)      cg2d_last_res =   8.91300657067070E-08
(PID.TID 0000.0001) // =======================================================
(PID.TID 0000.0001) // Begin MONITOR dynamic field statistics
(PID.TID 0000.0001) // =======================================================
(PID.TID 0000.0001) %MON time_tsnumber                =                 11808
(PID.TID 0000.0001) %MON time_secondsf                =   1.4169600000000E+07
(PID.TID 0000.0001) %MON dynstat_eta_max              =   1.1741575280119E-01
(PID.TID 0000.0001) %MON dynstat_eta_min              =  -2.8254282986875E-01
(PID.TID 0000.0001) %MON dynstat_eta_mean             =  -5.5508212334039E-08
(PID.TID 0000.0001) %MON dynstat_eta_sd               =   1.0354362340522E-01
(PID.TID 0000.0001) %MON dynstat_eta_del2             =   6.2001345232066E-07
(PID.TID 0000.0001) %MON dynstat_uvel_max             =   1.0572224455474E-01
(PID.TID 0000.0001) %MON dynstat_uvel_min             =  -1.1419317705387E-01
(PID.TID 0000.0001) %MON dynstat_uvel_mean            =   7.9530021529991E-08
(PID.TID 0000.0001) %MON dynstat_uvel_sd              =   4.2669240616588E-02
(PID.TID 0000.0001) %MON dynstat_uvel_del2            =   9.3852131649538E-07
(PID.TID 0000.0001) %MON dynstat_vvel_max             =   1.1996846949151E-01
(PID.TID 0000.0001) %MON dynstat_vvel_min             =  -9.8796313454975E-02
(PID.TID 0000.0001) %MON dynstat_vvel_mean            =   2.3758047989947E-08
(PID.TID 0000.0001) %MON dynstat_vvel_sd              =   3.9897271206524E-02
(PID.TID 0000.0001) %MON dynstat_vvel_del2            =   1.2511021678033E-06
(PID.TID 0000.0001) %MON dynstat_wvel_max             =   6.3788354210556E-09
(PID.TID 0000.0001) %MON dynstat_wvel_min             =  -1.3013121802360E-08
(PID.TID 0000.0001) %MON dynstat_wvel_mean            =  -5.0452734692966E-21
(PID.TID 0000.0001) %MON dynstat_wvel_sd              =   4.5212948502350E-09
(PID.TID 0000.0001) %MON dynstat_wvel_del2            =   4.2035332427735E-14
(PID.TID 0000.0001) %MON dynstat_theta_max            =   2.0000000000000E+01
(PID.TID 0000.0001) %MON dynstat_theta_min            =   2.0000000000000E+01
(PID.TID 0000.0001) %MON dynstat_theta_mean           =   1.9999999999999E+01
(PID.TID 0000.0001) %MON dynstat_theta_sd             =   1.1972645097557E-12
(PID.TID 0000.0001) %MON dynstat_theta_del2           =   0.0000000000000E+00
(PID.TID 0000.0001) %MON dynstat_salt_max             =   3.0000000000000E+01
(PID.TID 0000.0001) %MON dynstat_salt_min             =   3.0000000000000E+01
(PID.TID 0000.0001) %MON dynstat_salt_mean            =   2.9999999999998E+01
(PID.TID 0000.0001) %MON dynstat_salt_sd              =   2.1529444893531E-12
(PID.TID 0000.0001) %MON dynstat_salt_del2            =   0.0000000000000E+00
(PID.TID 0000.0001) %MON trAdv_CFL_u_max              =   2.7405482890319E-02
(PID.TID 0000.0001) %MON trAdv_CFL_v_max              =   2.8790590582272E-02
(PID.TID 0000.0001) %MON trAdv_CFL_w_max              =   1.6026305994609E-09
(PID.TID 0000.0001) %MON advcfl_uvel_max              =   2.7406362492928E-02
(PID.TID 0000.0001) %MON advcfl_vvel_max              =   2.8792432677961E-02
(PID.TID 0000.0001) %MON advcfl_wvel_max              =   6.2462984651327E-09
(PID.TID 0000.0001) %MON advcfl_W_hf_max              =   0.0000000000000E+00
(PID.TID 0000.0001) %MON pe_b_mean                    =   1.0969339903979E-05
(PID.TID 0000.0001) %MON ke_max                       =   7.2326572566437E-03
(PID.TID 0000.0001) %MON ke_mean                      =   1.6985477899213E-03
(PID.TID 0000.0001) %MON ke_vol                       =   7.2529629296391E+15
(PID.TID 0000.0001) %MON vort_r_min                   =  -4.0597592768216E-06
(PID.TID 0000.0001) %MON vort_r_max                   =   3.2652302020254E-06
(PID.TID 0000.0001) %MON vort_a_mean                  =   1.0615000000000E-04
(PID.TID 0000.0001) %MON vort_a_sd                    =   3.6211912370942E-06
(PID.TID 0000.0001) %MON vort_p_mean                  =   1.1210870169429E-04
(PID.TID 0000.0001) %MON vort_p_sd                    =   2.1064943231385E-05
(PID.TID 0000.0001) %MON surfExpan_theta_mean         =  -1.0100864937764E-19
(PID.TID 0000.0001) %MON surfExpan_salt_mean          =  -1.5150514020247E-19
(PID.TID 0000.0001) // =======================================================
(PID.TID 0000.0001) // End MONITOR dynamic field statistics
(PID.TID 0000.0001) // =======================================================
 cg2d: Sum(rhs),rhsMax =   9.14872297075474E-04  1.27497191362854E-02
 cg2d: Sum(rhs),rhsMax =   9.14962825230896E-04  1.27498410623514E-02
 cg2d: Sum(rhs),rhsMax =   9.15053715958814E-04  1.27499631055928E-02
 cg2d: Sum(rhs),rhsMax =   9.15144873064334E-04  1.27500852640922E-02
 cg2d: Sum(rhs),rhsMax =   9.15236324708779E-04  1.27502075395020E-02
 cg2d: Sum(rhs),rhsMax =   9.15328071112423E-04  1.27503299311927E-02
 cg2d: Sum(rhs),rhsMax =   9.15420125990643E-04  1.27504524411255E-02
 cg2d: Sum(rhs),rhsMax =   9.15512439795542E-04  1.27505750682208E-02
 cg2d: Sum(rhs),rhsMax =   9.15605097106848E-04  1.27506978179850E-02
 cg2d: Sum(rhs),rhsMax =   9.15698025776360E-04  1.27508206858851E-02
 cg2d: Sum(rhs),rhsMax =   9.15791267621915E-04  1.27509436755660E-02
 cg2d: Sum(rhs),rhsMax =   9.15884812896919E-04  1.27510667838870E-02
 cg2d: Sum(rhs),rhsMax =   9.15978641215493E-04  1.27511900159231E-02
 cg2d: Sum(rhs),rhsMax =   9.16072745198301E-04  1.27513133675736E-02
 cg2d: Sum(rhs),rhsMax =   9.16167152519815E-04  1.27514368442726E-02
 cg2d: Sum(rhs),rhsMax =   9.16261747423951E-04  1.27515604412880E-02
 cg2d: Sum(rhs),rhsMax =   9.16356684357361E-04  1.27516841656739E-02
 cg2d: Sum(rhs),rhsMax =   9.16451913966897E-04  1.27518080107090E-02
 cg2d: Sum(rhs),rhsMax =   9.16547466173801E-04  1.27519319861360E-02
 cg2d: Sum(rhs),rhsMax =   9.16643253064186E-04  1.27520560823018E-02
 cg2d: Sum(rhs),rhsMax =   9.16739353380960E-04  1.27521803097338E-02
 cg2d: Sum(rhs),rhsMax =   9.16835702530230E-04  1.27523046592201E-02
 cg2d: Sum(rhs),rhsMax =   9.16932347804907E-04  1.27524291410941E-02
 cg2d: Sum(rhs),rhsMax =   9.17029266190243E-04  1.27525537473413E-02
 cg2d: Sum(rhs),rhsMax =   9.17126461556799E-04  1.27526784858320E-02
 cg2d: Sum(rhs),rhsMax =   9.17223951207496E-04  1.27528033499016E-02
 cg2d: Sum(rhs),rhsMax =   9.17321676999835E-04  1.27529283471849E-02
 cg2d: Sum(rhs),rhsMax =   9.17419665999437E-04  1.27530534704563E-02
 cg2d: Sum(rhs),rhsMax =   9.17517931573592E-04  1.27531787301155E-02
 cg2d: Sum(rhs),rhsMax =   9.17616498165614E-04  1.27533041170393E-02
 cg2d: Sum(rhs),rhsMax =   9.17715344190120E-04  1.27534296409594E-02
 cg2d: Sum(rhs),rhsMax =   9.17814460861458E-04  1.27535552925441E-02
 cg2d: Sum(rhs),rhsMax =   9.17913833814201E-04  1.27536810821694E-02
 cg2d: Sum(rhs),rhsMax =   9.18013448490547E-04  1.27538070013715E-02
 cg2d: Sum(rhs),rhsMax =   9.18113345316725E-04  1.27539330612873E-02
 cg2d: Sum(rhs),rhsMax =   9.18213519172345E-04  1.27540592479253E-02
 cg2d: Sum(rhs),rhsMax =   9.18313948137642E-04  1.27541855763005E-02
 cg2d: Sum(rhs),rhsMax =   9.18414620300243E-04  1.27543120353169E-02
 cg2d: Sum(rhs),rhsMax =   9.18515599886004E-04  1.27544386377564E-02
 cg2d: Sum(rhs),rhsMax =   9.18616817057875E-04  1.27545653711793E-02
 cg2d: Sum(rhs),rhsMax =   9.18718287641172E-04  1.27546922473077E-02
 cg2d: Sum(rhs),rhsMax =   9.18820017827240E-04  1.27548192577875E-02
 cg2d: Sum(rhs),rhsMax =   9.18922027603885E-04  1.27549464141355E-02
 cg2d: Sum(rhs),rhsMax =   9.19024280913989E-04  1.27550737017828E-02
 cg2d: Sum(rhs),rhsMax =   9.19126784808792E-04  1.27552011353803E-02
 cg2d: Sum(rhs),rhsMax =   9.19229534043008E-04  1.27553287034618E-02
 cg2d: Sum(rhs),rhsMax =   9.19332552319766E-04  1.27554564190487E-02
 cg2d: Sum(rhs),rhsMax =   9.19435822099869E-04  1.27555842699326E-02
 cg2d: Sum(rhs),rhsMax =   9.19539354466708E-04  1.27557122693292E-02
 cg2d: Sum(rhs),rhsMax =   9.19643128325785E-04  1.27558404054603E-02
 cg2d: Sum(rhs),rhsMax =   9.19747155795294E-04  1.27559686900729E-02
 cg2d: Sum(rhs),rhsMax =   9.19851443065221E-04  1.27560971143224E-02
 cg2d: Sum(rhs),rhsMax =   9.19955881460370E-04  1.27562256871426E-02
 cg2d: Sum(rhs),rhsMax =   9.20060658503242E-04  1.27563544001756E-02
 cg2d: Sum(rhs),rhsMax =   9.20165667129845E-04  1.27564832639066E-02
 cg2d: Sum(rhs),rhsMax =   9.20270947370128E-04  1.27566122684645E-02
 cg2d: Sum(rhs),rhsMax =   9.20376468081777E-04  1.27567414254520E-02
 cg2d: Sum(rhs),rhsMax =   9.20482248342512E-04  1.27568707228281E-02
 cg2d: Sum(rhs),rhsMax =   9.20588255603328E-04  1.27570001737569E-02
 cg2d: Sum(rhs),rhsMax =   9.20694498214228E-04  1.27571297662837E-02
 cg2d: Sum(rhs),rhsMax =   9.20801008830739E-04  1.27572595130924E-02
 cg2d: Sum(rhs),rhsMax =   9.20907690753481E-04  1.27573894028613E-02
 cg2d: Sum(rhs),rhsMax =   9.21014667302910E-04  1.27575194472566E-02
 cg2d: Sum(rhs),rhsMax =   9.21121871547527E-04  1.27576496350290E-02
 cg2d: Sum(rhs),rhsMax =   9.21229320865294E-04  1.27577799822999E-02
 cg2d: Sum(rhs),rhsMax =   9.21337017718694E-04  1.27579104759532E-02
 cg2d: Sum(rhs),rhsMax =   9.21444904201641E-04  1.27580411219890E-02
 cg2d: Sum(rhs),rhsMax =   9.21553082498579E-04  1.27581719154104E-02
 cg2d: Sum(rhs),rhsMax =   9.21661472422798E-04  1.27583028699455E-02
 cg2d: Sum(rhs),rhsMax =   9.21770105917976E-04  1.27584339717834E-02
 cg2d: Sum(rhs),rhsMax =   9.21878980891374E-04  1.27585652309853E-02
 cg2d: Sum(rhs),rhsMax =   9.21988087092143E-04  1.27586966392349E-02
(PID.TID 0000.0001)      cg2d_init_res =   2.80581120522199E-03
(PID.TID 0000.0001)      cg2d_iters(min,last) =      -1     369
(PID.TID 0000.0001)      cg2d_last_res =   9.80475680017408E-08
(PID.TID 0000.0001) // =======================================================
(PID.TID 0000.0001) // Begin MONITOR dynamic field statistics
(PID.TID 0000.0001) // =======================================================
(PID.TID 0000.0001) %MON time_tsnumber                =                 11880
(PID.TID 0000.0001) %MON time_secondsf                =   1.4256000000000E+07
(PID.TID 0000.0001) %MON dynstat_eta_max              =   1.1761111643735E-01
(PID.TID 0000.0001) %MON dynstat_eta_min              =  -2.8340480286524E-01
(PID.TID 0000.0001) %MON dynstat_eta_mean             =  -5.5986556111026E-08
(PID.TID 0000.0001) %MON dynstat_eta_sd               =   1.0379249837752E-01
(PID.TID 0000.0001) %MON dynstat_eta_del2             =   6.2162206311395E-07
(PID.TID 0000.0001) %MON dynstat_uvel_max             =   1.0619604712980E-01
(PID.TID 0000.0001) %MON dynstat_uvel_min             =  -1.1445885974237E-01
(PID.TID 0000.0001) %MON dynstat_uvel_mean            =   9.4971874145733E-08
(PID.TID 0000.0001) %MON dynstat_uvel_sd              =   4.2773897003240E-02
(PID.TID 0000.0001) %MON dynstat_uvel_del2            =   9.4058251089399E-07
(PID.TID 0000.0001) %MON dynstat_vvel_max             =   1.2052247234976E-01
(PID.TID 0000.0001) %MON dynstat_vvel_min             =  -9.9418797909053E-02
(PID.TID 0000.0001) %MON dynstat_vvel_mean            =   1.0416017677921E-08
(PID.TID 0000.0001) %MON dynstat_vvel_sd              =   4.0036301385906E-02
(PID.TID 0000.0001) %MON dynstat_vvel_del2            =   1.2489906677641E-06
(PID.TID 0000.0001) %MON dynstat_wvel_max             =   6.6984519708785E-09
(PID.TID 0000.0001) %MON dynstat_wvel_min             =  -1.3351153694093E-08
(PID.TID 0000.0001) %MON dynstat_wvel_mean            =  -7.6161917655360E-21
(PID.TID 0000.0001) %MON dynstat_wvel_sd              =   4.4748810826721E-09
(PID.TID 0000.0001) %MON dynstat_wvel_del2            =   4.1883505132242E-14
(PID.TID 0000.0001) %MON dynstat_theta_max            =   2.0000000000000E+01
(PID.TID 0000.0001) %MON dynstat_theta_min            =   2.0000000000000E+01
(PID.TID 0000.0001) %MON dynstat_theta_mean           =   1.9999999999999E+01
(PID.TID 0000.0001) %MON dynstat_theta_sd             =   1.1972645097557E-12
(PID.TID 0000.0001) %MON dynstat_theta_del2           =   0.0000000000000E+00
(PID.TID 0000.0001) %MON dynstat_salt_max             =   3.0000000000000E+01
(PID.TID 0000.0001) %MON dynstat_salt_min             =   3.0000000000000E+01
(PID.TID 0000.0001) %MON dynstat_salt_mean            =   2.9999999999998E+01
(PID.TID 0000.0001) %MON dynstat_salt_sd              =   2.1529444893531E-12
(PID.TID 0000.0001) %MON dynstat_salt_del2            =   0.0000000000000E+00
(PID.TID 0000.0001) %MON trAdv_CFL_u_max              =   2.7469234416229E-02
(PID.TID 0000.0001) %MON trAdv_CFL_v_max              =   2.8923537753399E-02
(PID.TID 0000.0001) %MON trAdv_CFL_w_max              =   1.6970013710653E-09
(PID.TID 0000.0001) %MON advcfl_uvel_max              =   2.7470126338169E-02
(PID.TID 0000.0001) %MON advcfl_vvel_max              =   2.8925393363942E-02
(PID.TID 0000.0001) %MON advcfl_wvel_max              =   6.4085537731648E-09
(PID.TID 0000.0001) %MON advcfl_W_hf_max              =   0.0000000000000E+00
(PID.TID 0000.0001) %MON pe_b_mean                    =   1.1022134560940E-05
(PID.TID 0000.0001) %MON ke_max                       =   7.2999245942626E-03
(PID.TID 0000.0001) %MON ke_mean                      =   1.7085303260351E-03
(PID.TID 0000.0001) %MON ke_vol                       =   7.2529629296391E+15
(PID.TID 0000.0001) %MON vort_r_min                   =  -4.0622851832361E-06
(PID.TID 0000.0001) %MON vort_r_max                   =   3.2555128687961E-06
(PID.TID 0000.0001) %MON vort_a_mean                  =   1.0615000000000E-04
(PID.TID 0000.0001) %MON vort_a_sd                    =   3.6214694200753E-06
(PID.TID 0000.0001) %MON vort_p_mean                  =   1.1210870169429E-04
(PID.TID 0000.0001) %MON vort_p_sd                    =   2.1065032991361E-05
(PID.TID 0000.0001) %MON surfExpan_theta_mean         =  -1.5246946631630E-19
(PID.TID 0000.0001) %MON surfExpan_salt_mean          =  -2.2868996419762E-19
(PID.TID 0000.0001) // =======================================================
(PID.TID 0000.0001) // End MONITOR dynamic field statistics
(PID.TID 0000.0001) // =======================================================
 cg2d: Sum(rhs),rhsMax =   9.22097446607310E-04  1.27588282069922E-02
 cg2d: Sum(rhs),rhsMax =   9.22207015211894E-04  1.27589599234166E-02
 cg2d: Sum(rhs),rhsMax =   9.22316828164295E-04  1.27590918022632E-02
 cg2d: Sum(rhs),rhsMax =   9.22426858092294E-04  1.27592238313773E-02
 cg2d: Sum(rhs),rhsMax =   9.22537117332929E-04  1.27593560226143E-02
 cg2d: Sum(rhs),rhsMax =   9.22647595348098E-04  1.27594883651890E-02
 cg2d: Sum(rhs),rhsMax =   9.22758312945780E-04  1.27596208699170E-02
 cg2d: Sum(rhs),rhsMax =   9.22869270773511E-04  1.27597535281869E-02
 cg2d: Sum(rhs),rhsMax =   9.22980458497114E-04  1.27598863493257E-02
 cg2d: Sum(rhs),rhsMax =   9.23091889050601E-04  1.27600193239231E-02
 cg2d: Sum(rhs),rhsMax =   9.23203521438969E-04  1.27601524638035E-02
 cg2d: Sum(rhs),rhsMax =   9.23315317186780E-04  1.27602857546510E-02
 cg2d: Sum(rhs),rhsMax =   9.23427390961297E-04  1.27604192166783E-02
 cg2d: Sum(rhs),rhsMax =   9.23539696450959E-04  1.27605528336720E-02
 cg2d: Sum(rhs),rhsMax =   9.23652218284438E-04  1.27606866168537E-02
 cg2d: Sum(rhs),rhsMax =   9.23765022052419E-04  1.27608205555034E-02
 cg2d: Sum(rhs),rhsMax =   9.23878011811086E-04  1.27609546613647E-02
 cg2d: Sum(rhs),rhsMax =   9.23991234711395E-04  1.27610889245768E-02
 cg2d: Sum(rhs),rhsMax =   9.24104656276703E-04  1.27612233556236E-02
 cg2d: Sum(rhs),rhsMax =   9.24218312247677E-04  1.27613579450646E-02
 cg2d: Sum(rhs),rhsMax =   9.24332095604918E-04  1.27614927043830E-02
 cg2d: Sum(rhs),rhsMax =   9.24446169687504E-04  1.27616276196551E-02
 cg2d: Sum(rhs),rhsMax =   9.24560473678610E-04  1.27617627042751E-02
 cg2d: Sum(rhs),rhsMax =   9.24675008330517E-04  1.27618979530068E-02
 cg2d: Sum(rhs),rhsMax =   9.24789727954378E-04  1.27620333687184E-02
 cg2d: Sum(rhs),rhsMax =   9.24904674731573E-04  1.27621689502114E-02
 cg2d: Sum(rhs),rhsMax =   9.25003988769877E-04  1.27623046888247E-02
 cg2d: Sum(rhs),rhsMax =   9.25103373642449E-04  1.27624406029464E-02
 cg2d: Sum(rhs),rhsMax =   9.25203036426580E-04  1.27625766911840E-02
 cg2d: Sum(rhs),rhsMax =   9.25302829779061E-04  1.27627129394188E-02
 cg2d: Sum(rhs),rhsMax =   9.25402848158558E-04  1.27628493623340E-02
 cg2d: Sum(rhs),rhsMax =   9.25503000995840E-04  1.27629859464166E-02
 cg2d: Sum(rhs),rhsMax =   9.25603339487002E-04  1.27631227082881E-02
 cg2d: Sum(rhs),rhsMax =   9.25703880728738E-04  1.27632596325177E-02
 cg2d: Sum(rhs),rhsMax =   9.25804533355119E-04  1.27633967349096E-02
 cg2d: Sum(rhs),rhsMax =   9.25905404563001E-04  1.27635339971552E-02
 cg2d: Sum(rhs),rhsMax =   9.25991761938100E-04  1.27636714257730E-02
 cg2d: Sum(rhs),rhsMax =   9.26078226803224E-04  1.27638090366438E-02
 cg2d: Sum(rhs),rhsMax =   9.26164871453581E-04  1.27639468187064E-02
 cg2d: Sum(rhs),rhsMax =   9.26251636384896E-04  1.27640847725492E-02
 cg2d: Sum(rhs),rhsMax =   9.26338532685216E-04  1.27642228952532E-02
 cg2d: Sum(rhs),rhsMax =   9.26425596358188E-04  1.27643611975648E-02
 cg2d: Sum(rhs),rhsMax =   9.26512787423171E-04  1.27644996742097E-02
 cg2d: Sum(rhs),rhsMax =   9.26600150286694E-04  1.27646383193313E-02
 cg2d: Sum(rhs),rhsMax =   9.26687627828406E-04  1.27647771407192E-02
 cg2d: Sum(rhs),rhsMax =   9.26775273890221E-04  1.27649161345289E-02
 cg2d: Sum(rhs),rhsMax =   9.26863052010228E-04  1.27650553072239E-02
 cg2d: Sum(rhs),rhsMax =   9.26950936286256E-04  1.27651946491439E-02
 cg2d: Sum(rhs),rhsMax =   9.27038964452748E-04  1.27653341687818E-02
 cg2d: Sum(rhs),rhsMax =   9.27127156585545E-04  1.27654738642692E-02
 cg2d: Sum(rhs),rhsMax =   9.27215501262974E-04  1.27656137408105E-02
 cg2d: Sum(rhs),rhsMax =   9.27303988946800E-04  1.27657537900869E-02
 cg2d: Sum(rhs),rhsMax =   9.27392596572141E-04  1.27658940197393E-02
 cg2d: Sum(rhs),rhsMax =   9.27481379937478E-04  1.27660344228237E-02
 cg2d: Sum(rhs),rhsMax =   9.27570255685482E-04  1.27661750051762E-02
 cg2d: Sum(rhs),rhsMax =   9.27659269554928E-04  1.27663157686366E-02
 cg2d: Sum(rhs),rhsMax =   9.27748412188468E-04  1.27664567151236E-02
 cg2d: Sum(rhs),rhsMax =   9.27837682100382E-04  1.27665978320427E-02
 cg2d: Sum(rhs),rhsMax =   9.27927118487269E-04  1.27667391354892E-02
 cg2d: Sum(rhs),rhsMax =   9.28016671587657E-04  1.27668806123860E-02
 cg2d: Sum(rhs),rhsMax =   9.28106353178578E-04  1.27670222741036E-02
 cg2d: Sum(rhs),rhsMax =   9.28196157032331E-04  1.27671641108732E-02
 cg2d: Sum(rhs),rhsMax =   9.28286140462238E-04  1.27673061357063E-02
 cg2d: Sum(rhs),rhsMax =   9.28376228499941E-04  1.27674483368805E-02
 cg2d: Sum(rhs),rhsMax =   9.28466451732226E-04  1.27675907265585E-02
 cg2d: Sum(rhs),rhsMax =   9.28556823411999E-04  1.27677332883558E-02
 cg2d: Sum(rhs),rhsMax =   9.28647302981617E-04  1.27678760373664E-02
 cg2d: Sum(rhs),rhsMax =   9.28737938452559E-04  1.27680189680331E-02
 cg2d: Sum(rhs),rhsMax =   9.28828695185501E-04  1.27681620862254E-02
 cg2d: Sum(rhs),rhsMax =   9.28919578640608E-04  1.27683053819584E-02
 cg2d: Sum(rhs),rhsMax =   9.29010590712154E-04  1.27684488670680E-02
 cg2d: Sum(rhs),rhsMax =   9.29101749458656E-04  1.27685925322201E-02
(PID.TID 0000.0001)      cg2d_init_res =   2.78969197400990E-03
(PID.TID 0000.0001)      cg2d_iters(min,last) =      -1     371
(PID.TID 0000.0001)      cg2d_last_res =   8.76820062981335E-08
(PID.TID 0000.0001) // =======================================================
(PID.TID 0000.0001) // Begin MONITOR dynamic field statistics
(PID.TID 0000.0001) // =======================================================
(PID.TID 0000.0001) %MON time_tsnumber                =                 11952
(PID.TID 0000.0001) %MON time_secondsf                =   1.4342400000000E+07
(PID.TID 0000.0001) %MON dynstat_eta_max              =   1.1774210874248E-01
(PID.TID 0000.0001) %MON dynstat_eta_min              =  -2.8424189437056E-01
(PID.TID 0000.0001) %MON dynstat_eta_mean             =  -5.6461186447914E-08
(PID.TID 0000.0001) %MON dynstat_eta_sd               =   1.0403872816697E-01
(PID.TID 0000.0001) %MON dynstat_eta_del2             =   6.2318498764146E-07
(PID.TID 0000.0001) %MON dynstat_uvel_max             =   1.0668902624056E-01
(PID.TID 0000.0001) %MON dynstat_uvel_min             =  -1.1472948461317E-01
(PID.TID 0000.0001) %MON dynstat_uvel_mean            =   1.0600445424423E-07
(PID.TID 0000.0001) %MON dynstat_uvel_sd              =   4.2884127887263E-02
(PID.TID 0000.0001) %MON dynstat_uvel_del2            =   9.4287412207151E-07
(PID.TID 0000.0001) %MON dynstat_vvel_max             =   1.2107414792737E-01
(PID.TID 0000.0001) %MON dynstat_vvel_min             =  -1.0003254482910E-01
(PID.TID 0000.0001) %MON dynstat_vvel_mean            =  -5.1313077227984E-09
(PID.TID 0000.0001) %MON dynstat_vvel_sd              =   4.0165809339719E-02
(PID.TID 0000.0001) %MON dynstat_vvel_del2            =   1.2464751259183E-06
(PID.TID 0000.0001) %MON dynstat_wvel_max             =   7.5304494952434E-09
(PID.TID 0000.0001) %MON dynstat_wvel_min             =  -1.3579174913466E-08
(PID.TID 0000.0001) %MON dynstat_wvel_mean            =  -1.0639759875853E-20
(PID.TID 0000.0001) %MON dynstat_wvel_sd              =   4.4228837709111E-09
(PID.TID 0000.0001) %MON dynstat_wvel_del2            =   4.1300744296474E-14
(PID.TID 0000.0001) %MON dynstat_theta_max            =   2.0000000000000E+01
(PID.TID 0000.0001) %MON dynstat_theta_min            =   2.0000000000000E+01
(PID.TID 0000.0001) %MON dynstat_theta_mean           =   1.9999999999999E+01
(PID.TID 0000.0001) %MON dynstat_theta_sd             =   1.1972645097557E-12
(PID.TID 0000.0001) %MON dynstat_theta_del2           =   0.0000000000000E+00
(PID.TID 0000.0001) %MON dynstat_salt_max             =   3.0000000000000E+01
(PID.TID 0000.0001) %MON dynstat_salt_min             =   3.0000000000000E+01
(PID.TID 0000.0001) %MON dynstat_salt_mean            =   2.9999999999998E+01
(PID.TID 0000.0001) %MON dynstat_salt_sd              =   2.1529444893531E-12
(PID.TID 0000.0001) %MON dynstat_salt_del2            =   0.0000000000000E+00
(PID.TID 0000.0001) %MON trAdv_CFL_u_max              =   2.7534147041366E-02
(PID.TID 0000.0001) %MON trAdv_CFL_v_max              =   2.9055973295695E-02
(PID.TID 0000.0001) %MON trAdv_CFL_w_max              =   1.9120268405405E-09
(PID.TID 0000.0001) %MON advcfl_uvel_max              =   2.7535076307160E-02
(PID.TID 0000.0001) %MON advcfl_vvel_max              =   2.9057795502568E-02
(PID.TID 0000.0001) %MON advcfl_wvel_max              =   6.5180039584637E-09
(PID.TID 0000.0001) %MON advcfl_W_hf_max              =   0.0000000000000E+00
(PID.TID 0000.0001) %MON pe_b_mean                    =   1.1074492816821E-05
(PID.TID 0000.0001) %MON ke_max                       =   7.3665392375104E-03
(PID.TID 0000.0001) %MON ke_mean                      =   1.7184001826931E-03
(PID.TID 0000.0001) %MON ke_vol                       =   7.2529629296391E+15
(PID.TID 0000.0001) %MON vort_r_min                   =  -4.0650372623226E-06
(PID.TID 0000.0001) %MON vort_r_max                   =   3.2437570838315E-06
(PID.TID 0000.0001) %MON vort_a_mean                  =   1.0615000000000E-04
(PID.TID 0000.0001) %MON vort_a_sd                    =   3.6217423140630E-06
(PID.TID 0000.0001) %MON vort_p_mean                  =   1.1210870169429E-04
(PID.TID 0000.0001) %MON vort_p_sd                    =   2.1065110101066E-05
(PID.TID 0000.0001) %MON surfExpan_theta_mean         =  -2.1287184058568E-19
(PID.TID 0000.0001) %MON surfExpan_salt_mean          =  -3.1931174356237E-19
(PID.TID 0000.0001) // =======================================================
(PID.TID 0000.0001) // End MONITOR dynamic field statistics
(PID.TID 0000.0001) // =======================================================
 cg2d: Sum(rhs),rhsMax =   9.29193013961565E-04  1.27687363855378E-02
 cg2d: Sum(rhs),rhsMax =   9.29284407225688E-04  1.27688804197800E-02
 cg2d: Sum(rhs),rhsMax =   9.29375934222076E-04  1.27690246454195E-02
 cg2d: Sum(rhs),rhsMax =   9.29467575068709E-04  1.27691690509034E-02
 cg2d: Sum(rhs),rhsMax =   9.29559381219948E-04  1.27693136480457E-02
 cg2d: Sum(rhs),rhsMax =   9.29651319417583E-04  1.27694584246257E-02
 cg2d: Sum(rhs),rhsMax =   9.29743270306134E-04  1.27696033917318E-02
 cg2d: Sum(rhs),rhsMax =   9.29835428593210E-04  1.27697485446842E-02
 cg2d: Sum(rhs),rhsMax =   9.29927712368698E-04  1.27698938886052E-02
 cg2d: Sum(rhs),rhsMax =   9.30020143519726E-04  1.27700394131981E-02
 cg2d: Sum(rhs),rhsMax =   9.30112683014007E-04  1.27701851302176E-02
 cg2d: Sum(rhs),rhsMax =   9.30205346147536E-04  1.27703310335071E-02
 cg2d: Sum(rhs),rhsMax =   9.30298102093229E-04  1.27704771315659E-02
 cg2d: Sum(rhs),rhsMax =   9.30391014540427E-04  1.27706234076643E-02
 cg2d: Sum(rhs),rhsMax =   9.30484052186041E-04  1.27707698801464E-02
 cg2d: Sum(rhs),rhsMax =   9.30577214921628E-04  1.27709165381209E-02
 cg2d: Sum(rhs),rhsMax =   9.30670515844733E-04  1.27710633920889E-02
 cg2d: Sum(rhs),rhsMax =   9.30763903787888E-04  1.27712104301157E-02
 cg2d: Sum(rhs),rhsMax =   9.30857391562265E-04  1.27713576629876E-02
 cg2d: Sum(rhs),rhsMax =   9.30951050530435E-04  1.27715050821269E-02
 cg2d: Sum(rhs),rhsMax =   9.31044799486519E-04  1.27716526981728E-02
 cg2d: Sum(rhs),rhsMax =   9.31138700415907E-04  1.27718004988715E-02
 cg2d: Sum(rhs),rhsMax =   9.31232719424562E-04  1.27719484970593E-02
 cg2d: Sum(rhs),rhsMax =   9.31326870618327E-04  1.27720966816647E-02
 cg2d: Sum(rhs),rhsMax =   9.31421134855920E-04  1.27722450647007E-02
 cg2d: Sum(rhs),rhsMax =   9.31515497477440E-04  1.27723936343471E-02
 cg2d: Sum(rhs),rhsMax =   9.31609984968031E-04  1.27725424016726E-02
 cg2d: Sum(rhs),rhsMax =   9.31704568345940E-04  1.27726913562052E-02
 cg2d: Sum(rhs),rhsMax =   9.31799257268063E-04  1.27728405116666E-02
 cg2d: Sum(rhs),rhsMax =   9.31894109894056E-04  1.27729898556862E-02
 cg2d: Sum(rhs),rhsMax =   9.31989029215827E-04  1.27731393963983E-02
 cg2d: Sum(rhs),rhsMax =   9.32084117038375E-04  1.27732891280254E-02
 cg2d: Sum(rhs),rhsMax =   9.32179272997182E-04  1.27734390571419E-02
 cg2d: Sum(rhs),rhsMax =   9.32274520235421E-04  1.27735891779331E-02
 cg2d: Sum(rhs),rhsMax =   9.32369914953561E-04  1.27737394966131E-02
 cg2d: Sum(rhs),rhsMax =   9.32465433845316E-04  1.27738900068268E-02
 cg2d: Sum(rhs),rhsMax =   9.32561066266335E-04  1.27740407194594E-02
 cg2d: Sum(rhs),rhsMax =   9.32656822150622E-04  1.27741916222451E-02
 cg2d: Sum(rhs),rhsMax =   9.32752709614683E-04  1.27743427256089E-02
 cg2d: Sum(rhs),rhsMax =   9.32848668711119E-04  1.27744940188282E-02
 cg2d: Sum(rhs),rhsMax =   9.32944763111038E-04  1.27746455167012E-02
 cg2d: Sum(rhs),rhsMax =   9.33040972596413E-04  1.27747972052451E-02
 cg2d: Sum(rhs),rhsMax =   9.33137281324213E-04  1.27749490953891E-02
 cg2d: Sum(rhs),rhsMax =   9.33233702450872E-04  1.27751011782425E-02
 cg2d: Sum(rhs),rhsMax =   9.33330248177036E-04  1.27752534636600E-02
 cg2d: Sum(rhs),rhsMax =   9.33426846461746E-04  1.27754059419023E-02
 cg2d: Sum(rhs),rhsMax =   9.33523597898788E-04  1.27755586228704E-02
 cg2d: Sum(rhs),rhsMax =   9.33620429973615E-04  1.27757114984542E-02
 cg2d: Sum(rhs),rhsMax =   9.33717415968576E-04  1.27758645785913E-02
 cg2d: Sum(rhs),rhsMax =   9.33814525149882E-04  1.27760178520290E-02
 cg2d: Sum(rhs),rhsMax =   9.33911708749666E-04  1.27761713287078E-02
 cg2d: Sum(rhs),rhsMax =   9.34008998185890E-04  1.27763250005296E-02
 cg2d: Sum(rhs),rhsMax =   9.34106427366528E-04  1.27764788761105E-02
 cg2d: Sum(rhs),rhsMax =   9.34203844333067E-04  1.27766329466477E-02
 cg2d: Sum(rhs),rhsMax =   9.34301415431061E-04  1.27767872215042E-02
 cg2d: Sum(rhs),rhsMax =   9.34399090077625E-04  1.27769416920460E-02
 cg2d: Sum(rhs),rhsMax =   9.34496942913816E-04  1.27770963691071E-02
 cg2d: Sum(rhs),rhsMax =   9.34594879237683E-04  1.27772512426212E-02
 cg2d: Sum(rhs),rhsMax =   9.34692887957949E-04  1.27774063207329E-02
 cg2d: Sum(rhs),rhsMax =   9.34791034126130E-04  1.27775615962718E-02
 cg2d: Sum(rhs),rhsMax =   9.34889238145407E-04  1.27777170752207E-02
 cg2d: Sum(rhs),rhsMax =   9.34987565062427E-04  1.27778727554206E-02
 cg2d: Sum(rhs),rhsMax =   9.35086018322259E-04  1.27780286408842E-02
 cg2d: Sum(rhs),rhsMax =   9.35184551496559E-04  1.27781847231396E-02
 cg2d: Sum(rhs),rhsMax =   9.35283193729279E-04  1.27783410117564E-02
 cg2d: Sum(rhs),rhsMax =   9.35381902600410E-04  1.27784974992131E-02
 cg2d: Sum(rhs),rhsMax =   9.35480687513954E-04  1.27786541931489E-02
 cg2d: Sum(rhs),rhsMax =   9.35579601092321E-04  1.27788110845331E-02
 cg2d: Sum(rhs),rhsMax =   9.35678623076679E-04  1.27789681842588E-02
 cg2d: Sum(rhs),rhsMax =   9.35777736959945E-04  1.27791254846000E-02
 cg2d: Sum(rhs),rhsMax =   9.35876975420483E-04  1.27792829924225E-02
 cg2d: Sum(rhs),rhsMax =   9.35976283499718E-04  1.27794406992645E-02
(PID.TID 0000.0001)      cg2d_init_res =   2.77622676177376E-03
(PID.TID 0000.0001)      cg2d_iters(min,last) =      -1     371
(PID.TID 0000.0001)      cg2d_last_res =   8.80077260709245E-08
(PID.TID 0000.0001) // =======================================================
(PID.TID 0000.0001) // Begin MONITOR dynamic field statistics
(PID.TID 0000.0001) // =======================================================
(PID.TID 0000.0001) %MON time_tsnumber                =                 12024
(PID.TID 0000.0001) %MON time_secondsf                =   1.4428800000000E+07
(PID.TID 0000.0001) %MON dynstat_eta_max              =   1.1781476937132E-01
(PID.TID 0000.0001) %MON dynstat_eta_min              =  -2.8505760190266E-01
(PID.TID 0000.0001) %MON dynstat_eta_mean             =  -5.6927791133525E-08
(PID.TID 0000.0001) %MON dynstat_eta_sd               =   1.0428314100264E-01
(PID.TID 0000.0001) %MON dynstat_eta_del2             =   6.2471276897110E-07
(PID.TID 0000.0001) %MON dynstat_uvel_max             =   1.0719790664398E-01
(PID.TID 0000.0001) %MON dynstat_uvel_min             =  -1.1501073048729E-01
(PID.TID 0000.0001) %MON dynstat_uvel_mean            =   1.1238400958697E-07
(PID.TID 0000.0001) %MON dynstat_uvel_sd              =   4.3000264783211E-02
(PID.TID 0000.0001) %MON dynstat_uvel_del2            =   9.4539182489086E-07
(PID.TID 0000.0001) %MON dynstat_vvel_max             =   1.2161543561330E-01
(PID.TID 0000.0001) %MON dynstat_vvel_min             =  -1.0063040180308E-01
(PID.TID 0000.0001) %MON dynstat_vvel_mean            =  -2.2111313010029E-08
(PID.TID 0000.0001) %MON dynstat_vvel_sd              =   4.0285851898723E-02
(PID.TID 0000.0001) %MON dynstat_vvel_del2            =   1.2437155183003E-06
(PID.TID 0000.0001) %MON dynstat_wvel_max             =   8.3204128392390E-09
(PID.TID 0000.0001) %MON dynstat_wvel_min             =  -1.3660490242764E-08
(PID.TID 0000.0001) %MON dynstat_wvel_mean            =  -5.9186879108823E-21
(PID.TID 0000.0001) %MON dynstat_wvel_sd              =   4.3657219615302E-09
(PID.TID 0000.0001) %MON dynstat_wvel_del2            =   4.1088134802818E-14
(PID.TID 0000.0001) %MON dynstat_theta_max            =   2.0000000000000E+01
(PID.TID 0000.0001) %MON dynstat_theta_min            =   2.0000000000000E+01
(PID.TID 0000.0001) %MON dynstat_theta_mean           =   1.9999999999999E+01
(PID.TID 0000.0001) %MON dynstat_theta_sd             =   1.1972645097557E-12
(PID.TID 0000.0001) %MON dynstat_theta_del2           =   0.0000000000000E+00
(PID.TID 0000.0001) %MON dynstat_salt_max             =   3.0000000000000E+01
(PID.TID 0000.0001) %MON dynstat_salt_min             =   3.0000000000000E+01
(PID.TID 0000.0001) %MON dynstat_salt_mean            =   2.9999999999998E+01
(PID.TID 0000.0001) %MON dynstat_salt_sd              =   2.1529444893531E-12
(PID.TID 0000.0001) %MON dynstat_salt_del2            =   0.0000000000000E+00
(PID.TID 0000.0001) %MON trAdv_CFL_u_max              =   2.7601629679330E-02
(PID.TID 0000.0001) %MON trAdv_CFL_v_max              =   2.9185917916365E-02
(PID.TID 0000.0001) %MON trAdv_CFL_w_max              =   2.1158117372555E-09
(PID.TID 0000.0001) %MON advcfl_uvel_max              =   2.7602575316950E-02
(PID.TID 0000.0001) %MON advcfl_vvel_max              =   2.9187704547192E-02
(PID.TID 0000.0001) %MON advcfl_wvel_max              =   6.5570353165269E-09
(PID.TID 0000.0001) %MON advcfl_W_hf_max              =   0.0000000000000E+00
(PID.TID 0000.0001) %MON pe_b_mean                    =   1.1126587409919E-05
(PID.TID 0000.0001) %MON ke_max                       =   7.4323546427923E-03
(PID.TID 0000.0001) %MON ke_mean                      =   1.7281719822429E-03
(PID.TID 0000.0001) %MON ke_vol                       =   7.2529629296391E+15
(PID.TID 0000.0001) %MON vort_r_min                   =  -4.0680770778978E-06
(PID.TID 0000.0001) %MON vort_r_max                   =   3.2304394153792E-06
(PID.TID 0000.0001) %MON vort_a_mean                  =   1.0615000000000E-04
(PID.TID 0000.0001) %MON vort_a_sd                    =   3.6220119943967E-06
(PID.TID 0000.0001) %MON vort_p_mean                  =   1.1210870169429E-04
(PID.TID 0000.0001) %MON vort_p_sd                    =   2.1065174991874E-05
(PID.TID 0000.0001) %MON surfExpan_theta_mean         =  -1.1848862531997E-19
(PID.TID 0000.0001) %MON surfExpan_salt_mean          =  -1.7772467203234E-19
(PID.TID 0000.0001) // =======================================================
(PID.TID 0000.0001) // End MONITOR dynamic field statistics
(PID.TID 0000.0001) // =======================================================
 cg2d: Sum(rhs),rhsMax =   9.36075701536176E-04  1.27795986120643E-02
 cg2d: Sum(rhs),rhsMax =   9.36175227264404E-04  1.27797567270247E-02
 cg2d: Sum(rhs),rhsMax =   9.36274814990253E-04  1.27799150511857E-02
 cg2d: Sum(rhs),rhsMax =   9.36374535887354E-04  1.27800735747513E-02
 cg2d: Sum(rhs),rhsMax =   9.36474343979740E-04  1.27802323059051E-02
 cg2d: Sum(rhs),rhsMax =   9.36574288141931E-04  1.27803912397212E-02
 cg2d: Sum(rhs),rhsMax =   9.36674239399152E-04  1.27805503808701E-02
 cg2d: Sum(rhs),rhsMax =   9.36774314369639E-04  1.27807097246835E-02
 cg2d: Sum(rhs),rhsMax =   9.36874475258451E-04  1.27808692757667E-02
 cg2d: Sum(rhs),rhsMax =   9.36974751749578E-04  1.27810290315100E-02
 cg2d: Sum(rhs),rhsMax =   9.37075153902237E-04  1.27811889958267E-02
 cg2d: Sum(rhs),rhsMax =   9.37175597643726E-04  1.27813491620429E-02
 cg2d: Sum(rhs),rhsMax =   9.37276136215557E-04  1.27815095369892E-02
 cg2d: Sum(rhs),rhsMax =   9.37376771375157E-04  1.27816701160479E-02
 cg2d: Sum(rhs),rhsMax =   9.37477466432973E-04  1.27818309047208E-02
 cg2d: Sum(rhs),rhsMax =   9.37578268815163E-04  1.27819918953520E-02
 cg2d: Sum(rhs),rhsMax =   9.37679186820665E-04  1.27821530963408E-02
 cg2d: Sum(rhs),rhsMax =   9.37780184375696E-04  1.27823145020871E-02
 cg2d: Sum(rhs),rhsMax =   9.37881257639885E-04  1.27824761181367E-02
 cg2d: Sum(rhs),rhsMax =   9.37982443857665E-04  1.27826379384509E-02
 cg2d: Sum(rhs),rhsMax =   9.38083627124499E-04  1.27827999648831E-02
 cg2d: Sum(rhs),rhsMax =   9.38184968277462E-04  1.27829622010104E-02
 cg2d: Sum(rhs),rhsMax =   9.38286378039921E-04  1.27831246470911E-02
 cg2d: Sum(rhs),rhsMax =   9.38387897402693E-04  1.27832872979537E-02
 cg2d: Sum(rhs),rhsMax =   9.38489517291384E-04  1.27834501584897E-02
 cg2d: Sum(rhs),rhsMax =   9.38591203988728E-04  1.27836132253128E-02
 cg2d: Sum(rhs),rhsMax =   9.38692964392692E-04  1.27837765017013E-02
 cg2d: Sum(rhs),rhsMax =   9.38794823166699E-04  1.27839399858524E-02
 cg2d: Sum(rhs),rhsMax =   9.38896666055022E-04  1.27841036790831E-02
 cg2d: Sum(rhs),rhsMax =   9.38998698565842E-04  1.27842675787907E-02
 cg2d: Sum(rhs),rhsMax =   9.39100772803132E-04  1.27844316896786E-02
 cg2d: Sum(rhs),rhsMax =   9.39202957379981E-04  1.27845960087303E-02
 cg2d: Sum(rhs),rhsMax =   9.39305225862497E-04  1.27847605379000E-02
 cg2d: Sum(rhs),rhsMax =   9.39407575644771E-04  1.27849252747408E-02
 cg2d: Sum(rhs),rhsMax =   9.39509940067926E-04  1.27850902197178E-02
 cg2d: Sum(rhs),rhsMax =   9.39612424715264E-04  1.27852553769702E-02
 cg2d: Sum(rhs),rhsMax =   9.39714992895612E-04  1.27854207437795E-02
 cg2d: Sum(rhs),rhsMax =   9.39817617575259E-04  1.27855863191496E-02
 cg2d: Sum(rhs),rhsMax =   9.39920363016178E-04  1.27857521047669E-02
 cg2d: Sum(rhs),rhsMax =   9.40023146389466E-04  1.27859180985298E-02
 cg2d: Sum(rhs),rhsMax =   9.40126050997242E-04  1.27860843042405E-02
 cg2d: Sum(rhs),rhsMax =   9.40229005439157E-04  1.27862507184081E-02
 cg2d: Sum(rhs),rhsMax =   9.40332052606439E-04  1.27864173443463E-02
 cg2d: Sum(rhs),rhsMax =   9.40435165185051E-04  1.27865841788288E-02
 cg2d: Sum(rhs),rhsMax =   9.40538195782074E-04  1.27867512234551E-02
 cg2d: Sum(rhs),rhsMax =   9.40641426379249E-04  1.27869184806374E-02
 cg2d: Sum(rhs),rhsMax =   9.40744709030017E-04  1.27870859481601E-02
 cg2d: Sum(rhs),rhsMax =   9.40848121629279E-04  1.27872536261575E-02
 cg2d: Sum(rhs),rhsMax =   9.40951591778668E-04  1.27874215151371E-02
 cg2d: Sum(rhs),rhsMax =   9.41055134009298E-04  1.27875896136385E-02
 cg2d: Sum(rhs),rhsMax =   9.41158756313180E-04  1.27877579249847E-02
 cg2d: Sum(rhs),rhsMax =   9.41262378570546E-04  1.27879264445645E-02
 cg2d: Sum(rhs),rhsMax =   9.41366116045271E-04  1.27880951775249E-02
 cg2d: Sum(rhs),rhsMax =   9.41469952722859E-04  1.27882641216300E-02
 cg2d: Sum(rhs),rhsMax =   9.41573837046839E-04  1.27884332779657E-02
 cg2d: Sum(rhs),rhsMax =   9.41677798378176E-04  1.27886026447303E-02
 cg2d: Sum(rhs),rhsMax =   9.41781796871476E-04  1.27887722234284E-02
 cg2d: Sum(rhs),rhsMax =   9.41885884253747E-04  1.27889420128594E-02
 cg2d: Sum(rhs),rhsMax =   9.41990024379251E-04  1.27891120140886E-02
 cg2d: Sum(rhs),rhsMax =   9.42112546042524E-04  1.27892822390191E-02
 cg2d: Sum(rhs),rhsMax =   9.42235160740072E-04  1.27894526616224E-02
 cg2d: Sum(rhs),rhsMax =   9.42357959576430E-04  1.27896232978879E-02
 cg2d: Sum(rhs),rhsMax =   9.42480703604255E-04  1.27897941462903E-02
 cg2d: Sum(rhs),rhsMax =   9.42603631678359E-04  1.27899652071966E-02
 cg2d: Sum(rhs),rhsMax =   9.42726557314507E-04  1.27901364788148E-02
 cg2d: Sum(rhs),rhsMax =   9.42849635148662E-04  1.27903079639290E-02
 cg2d: Sum(rhs),rhsMax =   9.42972685804514E-04  1.27904796603794E-02
 cg2d: Sum(rhs),rhsMax =   9.43095881045554E-04  1.27906515699923E-02
 cg2d: Sum(rhs),rhsMax =   9.43219049942653E-04  1.27908236887841E-02
 cg2d: Sum(rhs),rhsMax =   9.43342355229110E-04  1.27909960246893E-02
 cg2d: Sum(rhs),rhsMax =   9.43465737667187E-04  1.27911685692414E-02
 cg2d: Sum(rhs),rhsMax =   9.43589204533900E-04  1.27913413289011E-02
(PID.TID 0000.0001)      cg2d_init_res =   2.76332922630305E-03
(PID.TID 0000.0001)      cg2d_iters(min,last) =      -1     370
(PID.TID 0000.0001)      cg2d_last_res =   9.93938347761881E-08
(PID.TID 0000.0001) // =======================================================
(PID.TID 0000.0001) // Begin MONITOR dynamic field statistics
(PID.TID 0000.0001) // =======================================================
(PID.TID 0000.0001) %MON time_tsnumber                =                 12096
(PID.TID 0000.0001) %MON time_secondsf                =   1.4515200000000E+07
(PID.TID 0000.0001) %MON dynstat_eta_max              =   1.1783991878200E-01
(PID.TID 0000.0001) %MON dynstat_eta_min              =  -2.8585576313207E-01
(PID.TID 0000.0001) %MON dynstat_eta_mean             =  -5.7445751005167E-08
(PID.TID 0000.0001) %MON dynstat_eta_sd               =   1.0452649068931E-01
(PID.TID 0000.0001) %MON dynstat_eta_del2             =   6.2621636893264E-07
(PID.TID 0000.0001) %MON dynstat_uvel_max             =   1.0771828799500E-01
(PID.TID 0000.0001) %MON dynstat_uvel_min             =  -1.1529698302678E-01
(PID.TID 0000.0001) %MON dynstat_uvel_mean            =   1.1407807530344E-07
(PID.TID 0000.0001) %MON dynstat_uvel_sd              =   4.3122308450203E-02
(PID.TID 0000.0001) %MON dynstat_uvel_del2            =   9.4812384477200E-07
(PID.TID 0000.0001) %MON dynstat_vvel_max             =   1.2214590252426E-01
(PID.TID 0000.0001) %MON dynstat_vvel_min             =  -1.0120577027827E-01
(PID.TID 0000.0001) %MON dynstat_vvel_mean            =  -3.9730609801797E-08
(PID.TID 0000.0001) %MON dynstat_vvel_sd              =   4.0396847033522E-02
(PID.TID 0000.0001) %MON dynstat_vvel_del2            =   1.2408745392570E-06
(PID.TID 0000.0001) %MON dynstat_wvel_max             =   9.0423248792649E-09
(PID.TID 0000.0001) %MON dynstat_wvel_min             =  -1.3584974603727E-08
(PID.TID 0000.0001) %MON dynstat_wvel_mean            =  -4.5940094638808E-21
(PID.TID 0000.0001) %MON dynstat_wvel_sd              =   4.3048185130677E-09
(PID.TID 0000.0001) %MON dynstat_wvel_del2            =   4.1299068142311E-14
(PID.TID 0000.0001) %MON dynstat_theta_max            =   2.0000000000000E+01
(PID.TID 0000.0001) %MON dynstat_theta_min            =   2.0000000000000E+01
(PID.TID 0000.0001) %MON dynstat_theta_mean           =   1.9999999999999E+01
(PID.TID 0000.0001) %MON dynstat_theta_sd             =   1.1972645097557E-12
(PID.TID 0000.0001) %MON dynstat_theta_del2           =   0.0000000000000E+00
(PID.TID 0000.0001) %MON dynstat_salt_max             =   3.0000000000000E+01
(PID.TID 0000.0001) %MON dynstat_salt_min             =   3.0000000000000E+01
(PID.TID 0000.0001) %MON dynstat_salt_mean            =   2.9999999999998E+01
(PID.TID 0000.0001) %MON dynstat_salt_sd              =   2.1529444893531E-12
(PID.TID 0000.0001) %MON dynstat_salt_del2            =   0.0000000000000E+00
(PID.TID 0000.0001) %MON trAdv_CFL_u_max              =   2.7670313449462E-02
(PID.TID 0000.0001) %MON trAdv_CFL_v_max              =   2.9313266295455E-02
(PID.TID 0000.0001) %MON trAdv_CFL_w_max              =   2.3021371589169E-09
(PID.TID 0000.0001) %MON advcfl_uvel_max              =   2.7671275926427E-02
(PID.TID 0000.0001) %MON advcfl_vvel_max              =   2.9315016605823E-02
(PID.TID 0000.0001) %MON advcfl_wvel_max              =   6.5207878097892E-09
(PID.TID 0000.0001) %MON advcfl_W_hf_max              =   0.0000000000000E+00
(PID.TID 0000.0001) %MON pe_b_mean                    =   1.1178576844663E-05
(PID.TID 0000.0001) %MON ke_max                       =   7.4972756283351E-03
(PID.TID 0000.0001) %MON ke_mean                      =   1.7378612209237E-03
(PID.TID 0000.0001) %MON ke_vol                       =   7.2529629296391E+15
(PID.TID 0000.0001) %MON vort_r_min                   =  -4.0714483885596E-06
(PID.TID 0000.0001) %MON vort_r_max                   =   3.2164525662276E-06
(PID.TID 0000.0001) %MON vort_a_mean                  =   1.0615000000000E-04
(PID.TID 0000.0001) %MON vort_a_sd                    =   3.6222805164225E-06
(PID.TID 0000.0001) %MON vort_p_mean                  =   1.1210870169429E-04
(PID.TID 0000.0001) %MON vort_p_sd                    =   2.1065228562284E-05
(PID.TID 0000.0001) %MON surfExpan_theta_mean         =  -9.1953876743951E-20
(PID.TID 0000.0001) %MON surfExpan_salt_mean          =  -1.3795811152931E-19
(PID.TID 0000.0001) // =======================================================
(PID.TID 0000.0001) // End MONITOR dynamic field statistics
(PID.TID 0000.0001) // =======================================================
 cg2d: Sum(rhs),rhsMax =   9.43712712120586E-04  1.27915142991117E-02
 cg2d: Sum(rhs),rhsMax =   9.43836313396637E-04  1.27916874829536E-02
 cg2d: Sum(rhs),rhsMax =   9.43959928471565E-04  1.27918608758679E-02
 cg2d: Sum(rhs),rhsMax =   9.44083615394071E-04  1.27920344875465E-02
 cg2d: Sum(rhs),rhsMax =   9.44207336658879E-04  1.27922083073559E-02
 cg2d: Sum(rhs),rhsMax =   9.44331156749155E-04  1.27923823442942E-02
 cg2d: Sum(rhs),rhsMax =   9.44455060189680E-04  1.27925565875411E-02
 cg2d: Sum(rhs),rhsMax =   9.44579013030734E-04  1.27927310498939E-02
 cg2d: Sum(rhs),rhsMax =   9.44703047985390E-04  1.27929057177262E-02
 cg2d: Sum(rhs),rhsMax =   9.44827097667359E-04  1.27930806064336E-02
 cg2d: Sum(rhs),rhsMax =   9.44951272001074E-04  1.27932557003639E-02
 cg2d: Sum(rhs),rhsMax =   9.45075451332190E-04  1.27934310150379E-02
 cg2d: Sum(rhs),rhsMax =   9.45199697314266E-04  1.27936065338062E-02
 cg2d: Sum(rhs),rhsMax =   9.45323850079101E-04  1.27937822741162E-02
 cg2d: Sum(rhs),rhsMax =   9.45448205234133E-04  1.27939582188004E-02
 cg2d: Sum(rhs),rhsMax =   9.45572561585522E-04  1.27941343857262E-02
 cg2d: Sum(rhs),rhsMax =   9.45696999915053E-04  1.27943107566707E-02
 cg2d: Sum(rhs),rhsMax =   9.45821544448387E-04  1.27944873466060E-02
 cg2d: Sum(rhs),rhsMax =   9.45966696514621E-04  1.27946641622030E-02
 cg2d: Sum(rhs),rhsMax =   9.46111875853105E-04  1.27948411740306E-02
 cg2d: Sum(rhs),rhsMax =   9.46257152445515E-04  1.27950184027969E-02
 cg2d: Sum(rhs),rhsMax =   9.46402363739657E-04  1.27951958375315E-02
 cg2d: Sum(rhs),rhsMax =   9.46547755452942E-04  1.27953734918839E-02
 cg2d: Sum(rhs),rhsMax =   9.46693111147536E-04  1.27955513565162E-02
 cg2d: Sum(rhs),rhsMax =   9.46838566608975E-04  1.27957294359486E-02
 cg2d: Sum(rhs),rhsMax =   9.46984055357395E-04  1.27959077248074E-02
 cg2d: Sum(rhs),rhsMax =   9.47129525402532E-04  1.27960862321451E-02
 cg2d: Sum(rhs),rhsMax =   9.47275019971707E-04  1.27962649484007E-02
 cg2d: Sum(rhs),rhsMax =   9.47420600049795E-04  1.27964438807687E-02
 cg2d: Sum(rhs),rhsMax =   9.47566272420357E-04  1.27966230193251E-02
 cg2d: Sum(rhs),rhsMax =   9.47711915305774E-04  1.27968023764417E-02
 cg2d: Sum(rhs),rhsMax =   9.47857603308226E-04  1.27969819442735E-02
 cg2d: Sum(rhs),rhsMax =   9.48003333144857E-04  1.27971617321836E-02
 cg2d: Sum(rhs),rhsMax =   9.48149094936778E-04  1.27973417198300E-02
 cg2d: Sum(rhs),rhsMax =   9.48294840809284E-04  1.27975219293522E-02
 cg2d: Sum(rhs),rhsMax =   9.48440672721115E-04  1.27977023484384E-02
 cg2d: Sum(rhs),rhsMax =   9.48586477287489E-04  1.27978829858091E-02
 cg2d: Sum(rhs),rhsMax =   9.48732363477721E-04  1.27980638278621E-02
 cg2d: Sum(rhs),rhsMax =   9.48878244391093E-04  1.27982448908608E-02
 cg2d: Sum(rhs),rhsMax =   9.49024129717219E-04  1.27984261580531E-02
 cg2d: Sum(rhs),rhsMax =   9.49170030324869E-04  1.27986076475045E-02
 cg2d: Sum(rhs),rhsMax =   9.49315924751419E-04  1.27987893403166E-02
 cg2d: Sum(rhs),rhsMax =   9.49461809419674E-04  1.27989712506385E-02
 cg2d: Sum(rhs),rhsMax =   9.49607794937361E-04  1.27991533696424E-02
 cg2d: Sum(rhs),rhsMax =   9.49753728322057E-04  1.27993357068948E-02
 cg2d: Sum(rhs),rhsMax =   9.49899710574315E-04  1.27995182492053E-02
 cg2d: Sum(rhs),rhsMax =   9.50045680818749E-04  1.27997010143410E-02
 cg2d: Sum(rhs),rhsMax =   9.50191477923900E-04  1.27998839806709E-02
 cg2d: Sum(rhs),rhsMax =   9.50337415057808E-04  1.28000671700323E-02
 cg2d: Sum(rhs),rhsMax =   9.50483324330710E-04  1.28002505618669E-02
 cg2d: Sum(rhs),rhsMax =   9.50629286633510E-04  1.28004341767281E-02
 cg2d: Sum(rhs),rhsMax =   9.50775229414480E-04  1.28006179931046E-02
 cg2d: Sum(rhs),rhsMax =   9.50921207605695E-04  1.28008020315504E-02
 cg2d: Sum(rhs),rhsMax =   9.51067145207665E-04  1.28009862715442E-02
 cg2d: Sum(rhs),rhsMax =   9.51213073481269E-04  1.28011707322852E-02
 cg2d: Sum(rhs),rhsMax =   9.51358843776767E-04  1.28013553915756E-02
 cg2d: Sum(rhs),rhsMax =   9.51504695356164E-04  1.28015402767242E-02
 cg2d: Sum(rhs),rhsMax =   9.51650533255619E-04  1.28017253654926E-02
 cg2d: Sum(rhs),rhsMax =   9.51796344445820E-04  1.28019106732639E-02
 cg2d: Sum(rhs),rhsMax =   9.51942099119429E-04  1.28020961847947E-02
 cg2d: Sum(rhs),rhsMax =   9.52087845960285E-04  1.28022819175467E-02
 cg2d: Sum(rhs),rhsMax =   9.52233568789328E-04  1.28024678522350E-02
 cg2d: Sum(rhs),rhsMax =   9.52379182327658E-04  1.28026540063169E-02
 cg2d: Sum(rhs),rhsMax =   9.52524826052988E-04  1.28028403635148E-02
 cg2d: Sum(rhs),rhsMax =   9.52670390837724E-04  1.28030269386224E-02
 cg2d: Sum(rhs),rhsMax =   9.52815965007263E-04  1.28032137195483E-02
 cg2d: Sum(rhs),rhsMax =   9.52961425114186E-04  1.28034007187537E-02
 cg2d: Sum(rhs),rhsMax =   9.53106881867656E-04  1.28035879218974E-02
 cg2d: Sum(rhs),rhsMax =   9.53252219715039E-04  1.28037753410608E-02
 cg2d: Sum(rhs),rhsMax =   9.53397556191374E-04  1.28039629677122E-02
 cg2d: Sum(rhs),rhsMax =   9.53542599071027E-04  1.28041508090193E-02
 cg2d: Sum(rhs),rhsMax =   9.53687720833880E-04  1.28043388562619E-02
(PID.TID 0000.0001)      cg2d_init_res =   2.74900959956574E-03
(PID.TID 0000.0001)      cg2d_iters(min,last) =      -1     369
(PID.TID 0000.0001)      cg2d_last_res =   9.49390973255931E-08
(PID.TID 0000.0001) // =======================================================
(PID.TID 0000.0001) // Begin MONITOR dynamic field statistics
(PID.TID 0000.0001) // =======================================================
(PID.TID 0000.0001) %MON time_tsnumber                =                 12168
(PID.TID 0000.0001) %MON time_secondsf                =   1.4601600000000E+07
(PID.TID 0000.0001) %MON dynstat_eta_max              =   1.1782333896999E-01
(PID.TID 0000.0001) %MON dynstat_eta_min              =  -2.8664038130743E-01
(PID.TID 0000.0001) %MON dynstat_eta_mean             =  -5.8120845745039E-08
(PID.TID 0000.0001) %MON dynstat_eta_sd               =   1.0476943249045E-01
(PID.TID 0000.0001) %MON dynstat_eta_del2             =   6.2770674170278E-07
(PID.TID 0000.0001) %MON dynstat_uvel_max             =   1.0824482596678E-01
(PID.TID 0000.0001) %MON dynstat_uvel_min             =  -1.1558823860161E-01
(PID.TID 0000.0001) %MON dynstat_uvel_mean            =   1.1125873325233E-07
(PID.TID 0000.0001) %MON dynstat_uvel_sd              =   4.3249941608625E-02
(PID.TID 0000.0001) %MON dynstat_uvel_del2            =   9.5105063540853E-07
(PID.TID 0000.0001) %MON dynstat_vvel_max             =   1.2266553073308E-01
(PID.TID 0000.0001) %MON dynstat_vvel_min             =  -1.0175945330838E-01
(PID.TID 0000.0001) %MON dynstat_vvel_mean            =  -5.7210163941871E-08
(PID.TID 0000.0001) %MON dynstat_vvel_sd              =   4.0499543885856E-02
(PID.TID 0000.0001) %MON dynstat_vvel_del2            =   1.2381117723255E-06
(PID.TID 0000.0001) %MON dynstat_wvel_max             =   9.6758683549706E-09
(PID.TID 0000.0001) %MON dynstat_wvel_min             =  -1.3349057454616E-08
(PID.TID 0000.0001) %MON dynstat_wvel_mean            =  -1.3710216145699E-20
(PID.TID 0000.0001) %MON dynstat_wvel_sd              =   4.2423685168062E-09
(PID.TID 0000.0001) %MON dynstat_wvel_del2            =   4.1002136482432E-14
(PID.TID 0000.0001) %MON dynstat_theta_max            =   2.0000000000000E+01
(PID.TID 0000.0001) %MON dynstat_theta_min            =   2.0000000000000E+01
(PID.TID 0000.0001) %MON dynstat_theta_mean           =   1.9999999999999E+01
(PID.TID 0000.0001) %MON dynstat_theta_sd             =   1.1972645097557E-12
(PID.TID 0000.0001) %MON dynstat_theta_del2           =   0.0000000000000E+00
(PID.TID 0000.0001) %MON dynstat_salt_max             =   3.0000000000000E+01
(PID.TID 0000.0001) %MON dynstat_salt_min             =   3.0000000000000E+01
(PID.TID 0000.0001) %MON dynstat_salt_mean            =   2.9999999999998E+01
(PID.TID 0000.0001) %MON dynstat_salt_sd              =   2.1529444893531E-12
(PID.TID 0000.0001) %MON dynstat_salt_del2            =   0.0000000000000E+00
(PID.TID 0000.0001) %MON trAdv_CFL_u_max              =   2.7740198418313E-02
(PID.TID 0000.0001) %MON trAdv_CFL_v_max              =   2.9438012801271E-02
(PID.TID 0000.0001) %MON trAdv_CFL_w_max              =   2.4662002810479E-09
(PID.TID 0000.0001) %MON advcfl_uvel_max              =   2.7741177264386E-02
(PID.TID 0000.0001) %MON advcfl_vvel_max              =   2.9439727375940E-02
(PID.TID 0000.0001) %MON advcfl_wvel_max              =   6.4075475782156E-09
(PID.TID 0000.0001) %MON advcfl_W_hf_max              =   0.0000000000000E+00
(PID.TID 0000.0001) %MON pe_b_mean                    =   1.1230600012335E-05
(PID.TID 0000.0001) %MON ke_max                       =   7.5612583401302E-03
(PID.TID 0000.0001) %MON ke_mean                      =   1.7474835949961E-03
(PID.TID 0000.0001) %MON ke_vol                       =   7.2529629296391E+15
(PID.TID 0000.0001) %MON vort_r_min                   =  -4.0751766229454E-06
(PID.TID 0000.0001) %MON vort_r_max                   =   3.2021620093214E-06
(PID.TID 0000.0001) %MON vort_a_mean                  =   1.0615000000000E-04
(PID.TID 0000.0001) %MON vort_a_sd                    =   3.6225498331749E-06
(PID.TID 0000.0001) %MON vort_p_mean                  =   1.1210870169429E-04
(PID.TID 0000.0001) %MON vort_p_sd                    =   2.1065272121962E-05
(PID.TID 0000.0001) %MON surfExpan_theta_mean         =  -2.7439654033068E-19
(PID.TID 0000.0001) %MON surfExpan_salt_mean          =  -4.1155304397774E-19
(PID.TID 0000.0001) // =======================================================
(PID.TID 0000.0001) // End MONITOR dynamic field statistics
(PID.TID 0000.0001) // =======================================================
 cg2d: Sum(rhs),rhsMax =   9.53832761688242E-04  1.28045271186562E-02
 cg2d: Sum(rhs),rhsMax =   9.53977791192427E-04  1.28047155867097E-02
 cg2d: Sum(rhs),rhsMax =   9.54122720837731E-04  1.28049042707009E-02
 cg2d: Sum(rhs),rhsMax =   9.54267580139341E-04  1.28050931584367E-02
 cg2d: Sum(rhs),rhsMax =   9.54412320473438E-04  1.28052822636795E-02
 cg2d: Sum(rhs),rhsMax =   9.54556968548128E-04  1.28054715721748E-02
 cg2d: Sum(rhs),rhsMax =   9.54701453532240E-04  1.28056610961344E-02
 cg2d: Sum(rhs),rhsMax =   9.54845859925413E-04  1.28058508233298E-02
 cg2d: Sum(rhs),rhsMax =   9.54990166618569E-04  1.28060407686828E-02
 cg2d: Sum(rhs),rhsMax =   9.55134368625765E-04  1.28062309147469E-02
 cg2d: Sum(rhs),rhsMax =   9.55278418367990E-04  1.28064212764219E-02
 cg2d: Sum(rhs),rhsMax =   9.55422300330100E-04  1.28066118412104E-02
 cg2d: Sum(rhs),rhsMax =   9.55566134292818E-04  1.28068026243220E-02
 cg2d: Sum(rhs),rhsMax =   9.55709781791282E-04  1.28069936097295E-02
 cg2d: Sum(rhs),rhsMax =   9.55853306535342E-04  1.28071848086974E-02
 cg2d: Sum(rhs),rhsMax =   9.55996679714091E-04  1.28073762111176E-02
 cg2d: Sum(rhs),rhsMax =   9.56139863874238E-04  1.28075678284951E-02
 cg2d: Sum(rhs),rhsMax =   9.56282889485164E-04  1.28077596499208E-02
 cg2d: Sum(rhs),rhsMax =   9.56425739702914E-04  1.28079516853584E-02
 cg2d: Sum(rhs),rhsMax =   9.56568408981770E-04  1.28081439219724E-02
 cg2d: Sum(rhs),rhsMax =   9.56710925977050E-04  1.28083363743550E-02
 cg2d: Sum(rhs),rhsMax =   9.56853214852196E-04  1.28085290278447E-02
 cg2d: Sum(rhs),rhsMax =   9.56995321031932E-04  1.28087218932807E-02
 cg2d: Sum(rhs),rhsMax =   9.57137175145853E-04  1.28089149620482E-02
 cg2d: Sum(rhs),rhsMax =   9.57278834732060E-04  1.28091082464869E-02
 cg2d: Sum(rhs),rhsMax =   9.57420270672750E-04  1.28093017327851E-02
 cg2d: Sum(rhs),rhsMax =   9.57561481938462E-04  1.28094954306527E-02
 cg2d: Sum(rhs),rhsMax =   9.57702440943547E-04  1.28096893285819E-02
 cg2d: Sum(rhs),rhsMax =   9.57843152402556E-04  1.28098834402595E-02
 cg2d: Sum(rhs),rhsMax =   9.57983605586634E-04  1.28100777543678E-02
 cg2d: Sum(rhs),rhsMax =   9.58123782721610E-04  1.28102722789764E-02
 cg2d: Sum(rhs),rhsMax =   9.58263670410305E-04  1.28104670059602E-02
 cg2d: Sum(rhs),rhsMax =   9.58403268631806E-04  1.28106619445469E-02
 cg2d: Sum(rhs),rhsMax =   9.58542545333048E-04  1.28108570859654E-02
 cg2d: Sum(rhs),rhsMax =   9.58681443042975E-04  1.28110524358120E-02
 cg2d: Sum(rhs),rhsMax =   9.58820082993321E-04  1.28112479890049E-02
 cg2d: Sum(rhs),rhsMax =   9.58958344154116E-04  1.28114437530458E-02
 cg2d: Sum(rhs),rhsMax =   9.59116771855738E-04  1.28116397184873E-02
 cg2d: Sum(rhs),rhsMax =   9.59274707715101E-04  1.28118358934252E-02
 cg2d: Sum(rhs),rhsMax =   9.59432202224962E-04  1.28120322674085E-02
 cg2d: Sum(rhs),rhsMax =   9.59589157446109E-04  1.28122288499905E-02
 cg2d: Sum(rhs),rhsMax =   9.59745561929919E-04  1.28124256380566E-02
 cg2d: Sum(rhs),rhsMax =   9.59901458254624E-04  1.28126226337572E-02
 cg2d: Sum(rhs),rhsMax =   9.60108075538162E-04  1.28128197996769E-02
 cg2d: Sum(rhs),rhsMax =   9.60313705678882E-04  1.28130172039366E-02
 cg2d: Sum(rhs),rhsMax =   9.60518371053902E-04  1.28132148095859E-02
 cg2d: Sum(rhs),rhsMax =   9.60721965150384E-04  1.28134126234045E-02
 cg2d: Sum(rhs),rhsMax =   9.60924485956215E-04  1.28136106363259E-02
 cg2d: Sum(rhs),rhsMax =   9.61125937325323E-04  1.28138088578862E-02
 cg2d: Sum(rhs),rhsMax =   9.61326172144247E-04  1.28140072819389E-02
 cg2d: Sum(rhs),rhsMax =   9.61525291353675E-04  1.28142059076148E-02
 cg2d: Sum(rhs),rhsMax =   9.61723154298485E-04  1.28144047330276E-02
 cg2d: Sum(rhs),rhsMax =   9.61919777749128E-04  1.28146037681118E-02
 cg2d: Sum(rhs),rhsMax =   9.62114982188199E-04  1.28148030028537E-02
 cg2d: Sum(rhs),rhsMax =   9.62660099555337E-04  1.28150024722082E-02
 cg2d: Sum(rhs),rhsMax =   9.63196699267116E-04  1.28152021072447E-02
 cg2d: Sum(rhs),rhsMax =   9.63724600552275E-04  1.28154019517826E-02
 cg2d: Sum(rhs),rhsMax =   9.64243539706217E-04  1.28156019926131E-02
 cg2d: Sum(rhs),rhsMax =   9.64772980203196E-04  1.28158022338856E-02
 cg2d: Sum(rhs),rhsMax =   9.65292545791932E-04  1.28160026789291E-02
 cg2d: Sum(rhs),rhsMax =   9.65923192666057E-04  1.28162033190862E-02
 cg2d: Sum(rhs),rhsMax =   9.66558517220811E-04  1.28164041812071E-02
 cg2d: Sum(rhs),rhsMax =   9.67214027820441E-04  1.28166052282447E-02
 cg2d: Sum(rhs),rhsMax =   9.67854299307163E-04  1.28168064873639E-02
 cg2d: Sum(rhs),rhsMax =   9.68479172427828E-04  1.28170079383430E-02
 cg2d: Sum(rhs),rhsMax =   9.69104648636407E-04  1.28172095841862E-02
 cg2d: Sum(rhs),rhsMax =   9.69714216434235E-04  1.28174114394852E-02
 cg2d: Sum(rhs),rhsMax =   9.70308026398090E-04  1.28176134902161E-02
 cg2d: Sum(rhs),rhsMax =   9.70885930542028E-04  1.28178157476198E-02
 cg2d: Sum(rhs),rhsMax =   9.71448039576410E-04  1.28180181968774E-02
 cg2d: Sum(rhs),rhsMax =   9.72008739123233E-04  1.28182208579115E-02
 cg2d: Sum(rhs),rhsMax =   9.72553301200003E-04  1.28184237049923E-02
(PID.TID 0000.0001)      cg2d_init_res =   2.73168135838204E-03
(PID.TID 0000.0001)      cg2d_iters(min,last) =      -1     342
(PID.TID 0000.0001)      cg2d_last_res =   9.74957385925532E-08
(PID.TID 0000.0001) // =======================================================
(PID.TID 0000.0001) // Begin MONITOR dynamic field statistics
(PID.TID 0000.0001) // =======================================================
(PID.TID 0000.0001) %MON time_tsnumber                =                 12240
(PID.TID 0000.0001) %MON time_secondsf                =   1.4688000000000E+07
(PID.TID 0000.0001) %MON dynstat_eta_max              =   1.1777960535055E-01
(PID.TID 0000.0001) %MON dynstat_eta_min              =  -2.8741545336549E-01
(PID.TID 0000.0001) %MON dynstat_eta_mean             =  -5.9359058156077E-08
(PID.TID 0000.0001) %MON dynstat_eta_sd               =   1.0501250494207E-01
(PID.TID 0000.0001) %MON dynstat_eta_del2             =   6.2919441233606E-07
(PID.TID 0000.0001) %MON dynstat_uvel_max             =   1.0877146178240E-01
(PID.TID 0000.0001) %MON dynstat_uvel_min             =  -1.1588422162010E-01
(PID.TID 0000.0001) %MON dynstat_uvel_mean            =   1.0428718793618E-07
(PID.TID 0000.0001) %MON dynstat_uvel_sd              =   4.3382554836654E-02
(PID.TID 0000.0001) %MON dynstat_uvel_del2            =   9.5414493409228E-07
(PID.TID 0000.0001) %MON dynstat_vvel_max             =   1.2317467839209E-01
(PID.TID 0000.0001) %MON dynstat_vvel_min             =  -1.0229155086093E-01
(PID.TID 0000.0001) %MON dynstat_vvel_mean            =  -7.3818434405200E-08
(PID.TID 0000.0001) %MON dynstat_vvel_sd              =   4.0594981376756E-02
(PID.TID 0000.0001) %MON dynstat_vvel_del2            =   1.2355781787454E-06
(PID.TID 0000.0001) %MON dynstat_wvel_max             =   1.0209342621965E-08
(PID.TID 0000.0001) %MON dynstat_wvel_min             =  -1.2944725025445E-08
(PID.TID 0000.0001) %MON dynstat_wvel_mean            =  -4.5481619495836E-22
(PID.TID 0000.0001) %MON dynstat_wvel_sd              =   4.1809745077087E-09
(PID.TID 0000.0001) %MON dynstat_wvel_del2            =   4.1073315381750E-14
(PID.TID 0000.0001) %MON dynstat_theta_max            =   2.0000000000000E+01
(PID.TID 0000.0001) %MON dynstat_theta_min            =   2.0000000000000E+01
(PID.TID 0000.0001) %MON dynstat_theta_mean           =   1.9999999999999E+01
(PID.TID 0000.0001) %MON dynstat_theta_sd             =   1.1972645097557E-12
(PID.TID 0000.0001) %MON dynstat_theta_del2           =   0.0000000000000E+00
(PID.TID 0000.0001) %MON dynstat_salt_max             =   3.0000000000000E+01
(PID.TID 0000.0001) %MON dynstat_salt_min             =   3.0000000000000E+01
(PID.TID 0000.0001) %MON dynstat_salt_mean            =   2.9999999999998E+01
(PID.TID 0000.0001) %MON dynstat_salt_sd              =   2.1529444893531E-12
(PID.TID 0000.0001) %MON dynstat_salt_del2            =   0.0000000000000E+00
(PID.TID 0000.0001) %MON trAdv_CFL_u_max              =   2.7811219314735E-02
(PID.TID 0000.0001) %MON trAdv_CFL_v_max              =   2.9560242218941E-02
(PID.TID 0000.0001) %MON trAdv_CFL_w_max              =   2.6036186849061E-09
(PID.TID 0000.0001) %MON advcfl_uvel_max              =   2.7812213188825E-02
(PID.TID 0000.0001) %MON advcfl_vvel_max              =   2.9561922814102E-02
(PID.TID 0000.0001) %MON advcfl_wvel_max              =   6.2134680122137E-09
(PID.TID 0000.0001) %MON advcfl_W_hf_max              =   0.0000000000000E+00
(PID.TID 0000.0001) %MON pe_b_mean                    =   1.1282772027294E-05
(PID.TID 0000.0001) %MON ke_max                       =   7.6243074884143E-03
(PID.TID 0000.0001) %MON ke_mean                      =   1.7570543550706E-03
(PID.TID 0000.0001) %MON ke_vol                       =   7.2529629296391E+15
(PID.TID 0000.0001) %MON vort_r_min                   =  -4.0792690638394E-06
(PID.TID 0000.0001) %MON vort_r_max                   =   3.1884924285490E-06
(PID.TID 0000.0001) %MON vort_a_mean                  =   1.0615000000000E-04
(PID.TID 0000.0001) %MON vort_a_sd                    =   3.6228217210313E-06
(PID.TID 0000.0001) %MON vort_p_mean                  =   1.1210870169429E-04
(PID.TID 0000.0001) %MON vort_p_sd                    =   2.1065307320499E-05
(PID.TID 0000.0001) %MON surfExpan_theta_mean         =  -9.2900633022543E-21
(PID.TID 0000.0001) %MON surfExpan_salt_mean          =  -1.3958915911513E-20
(PID.TID 0000.0001) // =======================================================
(PID.TID 0000.0001) // End MONITOR dynamic field statistics
(PID.TID 0000.0001) // =======================================================
 cg2d: Sum(rhs),rhsMax =   9.73081796281455E-04  1.28186267622532E-02
 cg2d: Sum(rhs),rhsMax =   9.73594100846870E-04  1.28188300068941E-02
 cg2d: Sum(rhs),rhsMax =   9.74104557120936E-04  1.28190334550576E-02
 cg2d: Sum(rhs),rhsMax =   9.74598659887563E-04  1.28192370995064E-02
 cg2d: Sum(rhs),rhsMax =   9.75076599861020E-04  1.28194409461709E-02
 cg2d: Sum(rhs),rhsMax =   9.75538329439566E-04  1.28196449834249E-02
 cg2d: Sum(rhs),rhsMax =   9.75984100699710E-04  1.28198492272973E-02
 cg2d: Sum(rhs),rhsMax =   9.76413831014562E-04  1.28200536624894E-02
 cg2d: Sum(rhs),rhsMax =   9.76841410906520E-04  1.28202583023647E-02
 cg2d: Sum(rhs),rhsMax =   9.77253028871552E-04  1.28204631334741E-02
 cg2d: Sum(rhs),rhsMax =   9.77648780220846E-04  1.28206681627201E-02
 cg2d: Sum(rhs),rhsMax =   9.78028834398605E-04  1.28208733861179E-02
 cg2d: Sum(rhs),rhsMax =   9.78393358137869E-04  1.28210788116934E-02
 cg2d: Sum(rhs),rhsMax =   9.78742599684279E-04  1.28212844193077E-02
 cg2d: Sum(rhs),rhsMax =   9.79076694330254E-04  1.28214902325252E-02
 cg2d: Sum(rhs),rhsMax =   9.79395853350750E-04  1.28216962336171E-02
 cg2d: Sum(rhs),rhsMax =   9.79700348616908E-04  1.28219024396538E-02
 cg2d: Sum(rhs),rhsMax =   9.80002529616268E-04  1.28221088404803E-02
 cg2d: Sum(rhs),rhsMax =   9.80290188991935E-04  1.28223154315145E-02
 cg2d: Sum(rhs),rhsMax =   9.80563643697101E-04  1.28225222158608E-02
 cg2d: Sum(rhs),rhsMax =   9.80823106630998E-04  1.28227291940616E-02
 cg2d: Sum(rhs),rhsMax =   9.81068901156696E-04  1.28229363670816E-02
 cg2d: Sum(rhs),rhsMax =   9.81301336397646E-04  1.28231437329096E-02
 cg2d: Sum(rhs),rhsMax =   9.81520698303318E-04  1.28233512941378E-02
 cg2d: Sum(rhs),rhsMax =   9.81727388024481E-04  1.28235590447333E-02
 cg2d: Sum(rhs),rhsMax =   9.81933148548364E-04  1.28237669906383E-02
 cg2d: Sum(rhs),rhsMax =   9.82126779343824E-04  1.28239751265075E-02
 cg2d: Sum(rhs),rhsMax =   9.82308584110067E-04  1.28241834588339E-02
 cg2d: Sum(rhs),rhsMax =   9.82478873464827E-04  1.28243919772554E-02
 cg2d: Sum(rhs),rhsMax =   9.82638111838918E-04  1.28246006928555E-02
 cg2d: Sum(rhs),rhsMax =   9.82786680646584E-04  1.28248095961375E-02
 cg2d: Sum(rhs),rhsMax =   9.82925029790202E-04  1.28250186971256E-02
 cg2d: Sum(rhs),rhsMax =   9.83053612588059E-04  1.28252279813291E-02
 cg2d: Sum(rhs),rhsMax =   9.83172868638730E-04  1.28254374621214E-02
 cg2d: Sum(rhs),rhsMax =   9.83283290100351E-04  1.28256471273509E-02
 cg2d: Sum(rhs),rhsMax =   9.83385331893490E-04  1.28258569874306E-02
 cg2d: Sum(rhs),rhsMax =   9.83479507776320E-04  1.28260670297862E-02
 cg2d: Sum(rhs),rhsMax =   9.83566282882762E-04  1.28262772701898E-02
 cg2d: Sum(rhs),rhsMax =   9.83657310085550E-04  1.28264876918712E-02
 cg2d: Sum(rhs),rhsMax =   9.83741814479633E-04  1.28266983083549E-02
 cg2d: Sum(rhs),rhsMax =   9.83820456411466E-04  1.28269091101333E-02
 cg2d: Sum(rhs),rhsMax =   9.83893745940493E-04  1.28271201023294E-02
 cg2d: Sum(rhs),rhsMax =   9.83962226023491E-04  1.28273312819046E-02
 cg2d: Sum(rhs),rhsMax =   9.84026509685746E-04  1.28275426491700E-02
 cg2d: Sum(rhs),rhsMax =   9.84087130033014E-04  1.28277542028382E-02
 cg2d: Sum(rhs),rhsMax =   9.84144743561672E-04  1.28279659444041E-02
 cg2d: Sum(rhs),rhsMax =   9.84199852959226E-04  1.28281778721629E-02
 cg2d: Sum(rhs),rhsMax =   9.84253132335059E-04  1.28283899871865E-02
 cg2d: Sum(rhs),rhsMax =   9.84305185585288E-04  1.28286022866461E-02
 cg2d: Sum(rhs),rhsMax =   9.84356649527174E-04  1.28288147743824E-02
 cg2d: Sum(rhs),rhsMax =   9.84408112017101E-04  1.28290274466078E-02
 cg2d: Sum(rhs),rhsMax =   9.84460227796575E-04  1.28292403085899E-02
 cg2d: Sum(rhs),rhsMax =   9.84513623617051E-04  1.28294533491551E-02
 cg2d: Sum(rhs),rhsMax =   9.84568832075669E-04  1.28296665727158E-02
 cg2d: Sum(rhs),rhsMax =   9.84626657495494E-04  1.28298799848152E-02
 cg2d: Sum(rhs),rhsMax =   9.84687656875550E-04  1.28300935831528E-02
 cg2d: Sum(rhs),rhsMax =   9.84752483442744E-04  1.28303073609954E-02
 cg2d: Sum(rhs),rhsMax =   9.84821804743690E-04  1.28305213266683E-02
 cg2d: Sum(rhs),rhsMax =   9.84896192491643E-04  1.28307354694195E-02
 cg2d: Sum(rhs),rhsMax =   9.84976346895421E-04  1.28309498031882E-02
 cg2d: Sum(rhs),rhsMax =   9.85062864487308E-04  1.28311643172066E-02
 cg2d: Sum(rhs),rhsMax =   9.85156405836345E-04  1.28313790104013E-02
 cg2d: Sum(rhs),rhsMax =   9.85257611820703E-04  1.28315938826315E-02
 cg2d: Sum(rhs),rhsMax =   9.85355256734086E-04  1.28318089445965E-02
 cg2d: Sum(rhs),rhsMax =   9.85461592433888E-04  1.28320241869526E-02
 cg2d: Sum(rhs),rhsMax =   9.85577295124163E-04  1.28322396030612E-02
 cg2d: Sum(rhs),rhsMax =   9.85702847959805E-04  1.28324552047889E-02
 cg2d: Sum(rhs),rhsMax =   9.85838931164154E-04  1.28326709823353E-02
 cg2d: Sum(rhs),rhsMax =   9.85985978519769E-04  1.28328869408467E-02
 cg2d: Sum(rhs),rhsMax =   9.86144785432342E-04  1.28331030795859E-02
 cg2d: Sum(rhs),rhsMax =   9.86315822946272E-04  1.28333194008182E-02
 cg2d: Sum(rhs),rhsMax =   9.86499634847249E-04  1.28335358949179E-02
(PID.TID 0000.0001)      cg2d_init_res =   2.71038803846966E-03
(PID.TID 0000.0001)      cg2d_iters(min,last) =      -1     338
(PID.TID 0000.0001)      cg2d_last_res =   9.79704642454976E-08
(PID.TID 0000.0001) // =======================================================
(PID.TID 0000.0001) // Begin MONITOR dynamic field statistics
(PID.TID 0000.0001) // =======================================================
(PID.TID 0000.0001) %MON time_tsnumber                =                 12312
(PID.TID 0000.0001) %MON time_secondsf                =   1.4774400000000E+07
(PID.TID 0000.0001) %MON dynstat_eta_max              =   1.1772194112693E-01
(PID.TID 0000.0001) %MON dynstat_eta_min              =  -2.8818480599001E-01
(PID.TID 0000.0001) %MON dynstat_eta_mean             =  -6.0260607927975E-08
(PID.TID 0000.0001) %MON dynstat_eta_sd               =   1.0525611775471E-01
(PID.TID 0000.0001) %MON dynstat_eta_del2             =   6.3068908288233E-07
(PID.TID 0000.0001) %MON dynstat_uvel_max             =   1.0929168969979E-01
(PID.TID 0000.0001) %MON dynstat_uvel_min             =  -1.1618638374210E-01
(PID.TID 0000.0001) %MON dynstat_uvel_mean            =   9.3690719493092E-08
(PID.TID 0000.0001) %MON dynstat_uvel_sd              =   4.3519283979665E-02
(PID.TID 0000.0001) %MON dynstat_uvel_del2            =   9.5737237267342E-07
(PID.TID 0000.0001) %MON dynstat_vvel_max             =   1.2367402481989E-01
(PID.TID 0000.0001) %MON dynstat_vvel_min             =  -1.0278821458543E-01
(PID.TID 0000.0001) %MON dynstat_vvel_mean            =  -8.8901763721785E-08
(PID.TID 0000.0001) %MON dynstat_vvel_sd              =   4.0684437243269E-02
(PID.TID 0000.0001) %MON dynstat_vvel_del2            =   1.2334110448302E-06
(PID.TID 0000.0001) %MON dynstat_wvel_max             =   1.0630312379799E-08
(PID.TID 0000.0001) %MON dynstat_wvel_min             =  -1.2394383326173E-08
(PID.TID 0000.0001) %MON dynstat_wvel_mean            =  -1.0863806172985E-20
(PID.TID 0000.0001) %MON dynstat_wvel_sd              =   4.1231964912742E-09
(PID.TID 0000.0001) %MON dynstat_wvel_del2            =   4.0750861957987E-14
(PID.TID 0000.0001) %MON dynstat_theta_max            =   2.0000000000000E+01
(PID.TID 0000.0001) %MON dynstat_theta_min            =   2.0000000000000E+01
(PID.TID 0000.0001) %MON dynstat_theta_mean           =   1.9999999999999E+01
(PID.TID 0000.0001) %MON dynstat_theta_sd             =   1.1972645097557E-12
(PID.TID 0000.0001) %MON dynstat_theta_del2           =   0.0000000000000E+00
(PID.TID 0000.0001) %MON dynstat_salt_max             =   3.0000000000000E+01
(PID.TID 0000.0001) %MON dynstat_salt_min             =   3.0000000000000E+01
(PID.TID 0000.0001) %MON dynstat_salt_mean            =   2.9999999999998E+01
(PID.TID 0000.0001) %MON dynstat_salt_sd              =   2.1529444893531E-12
(PID.TID 0000.0001) %MON dynstat_salt_del2            =   0.0000000000000E+00
(PID.TID 0000.0001) %MON trAdv_CFL_u_max              =   2.7883702585831E-02
(PID.TID 0000.0001) %MON trAdv_CFL_v_max              =   2.9680116619939E-02
(PID.TID 0000.0001) %MON trAdv_CFL_w_max              =   2.7138748323093E-09
(PID.TID 0000.0001) %MON advcfl_uvel_max              =   2.7884732098104E-02
(PID.TID 0000.0001) %MON advcfl_vvel_max              =   2.9681765956773E-02
(PID.TID 0000.0001) %MON advcfl_wvel_max              =   5.9493039965630E-09
(PID.TID 0000.0001) %MON advcfl_W_hf_max              =   0.0000000000000E+00
(PID.TID 0000.0001) %MON pe_b_mean                    =   1.1335181328944E-05
(PID.TID 0000.0001) %MON ke_max                       =   7.6864711879954E-03
(PID.TID 0000.0001) %MON ke_mean                      =   1.7665877151314E-03
(PID.TID 0000.0001) %MON ke_vol                       =   7.2529629296391E+15
(PID.TID 0000.0001) %MON vort_r_min                   =  -4.0837156562613E-06
(PID.TID 0000.0001) %MON vort_r_max                   =   3.1758185228324E-06
(PID.TID 0000.0001) %MON vort_a_mean                  =   1.0615000000000E-04
(PID.TID 0000.0001) %MON vort_a_sd                    =   3.6230977150102E-06
(PID.TID 0000.0001) %MON vort_p_mean                  =   1.1210870169429E-04
(PID.TID 0000.0001) %MON vort_p_sd                    =   2.1065336064094E-05
(PID.TID 0000.0001) %MON surfExpan_theta_mean         =  -2.1751370558045E-19
(PID.TID 0000.0001) %MON surfExpan_salt_mean          =  -3.2628561554571E-19
(PID.TID 0000.0001) // =======================================================
(PID.TID 0000.0001) // End MONITOR dynamic field statistics
(PID.TID 0000.0001) // =======================================================
 cg2d: Sum(rhs),rhsMax =   9.86696767101895E-04  1.28337525717225E-02
 cg2d: Sum(rhs),rhsMax =   9.86907774594965E-04  1.28339694251496E-02
 cg2d: Sum(rhs),rhsMax =   9.87133153983936E-04  1.28341864596433E-02
 cg2d: Sum(rhs),rhsMax =   9.87360562158195E-04  1.28344036629996E-02
 cg2d: Sum(rhs),rhsMax =   9.87602980782666E-04  1.28346210525835E-02
 cg2d: Sum(rhs),rhsMax =   9.87860989822313E-04  1.28348386154050E-02
 cg2d: Sum(rhs),rhsMax =   9.88134961127547E-04  1.28350563555946E-02
 cg2d: Sum(rhs),rhsMax =   9.88425348470764E-04  1.28352742713821E-02
 cg2d: Sum(rhs),rhsMax =   9.88732675861479E-04  1.28354923621752E-02
 cg2d: Sum(rhs),rhsMax =   9.89057249592759E-04  1.28357106223437E-02
 cg2d: Sum(rhs),rhsMax =   9.89399551104166E-04  1.28359290683298E-02
 cg2d: Sum(rhs),rhsMax =   9.89745879274419E-04  1.28361476824780E-02
 cg2d: Sum(rhs),rhsMax =   9.90110191851103E-04  1.28363664778862E-02
 cg2d: Sum(rhs),rhsMax =   9.90492918991587E-04  1.28365854384091E-02
 cg2d: Sum(rhs),rhsMax =   9.90894319722119E-04  1.28368045771276E-02
 cg2d: Sum(rhs),rhsMax =   9.91314799492238E-04  1.28370238890866E-02
 cg2d: Sum(rhs),rhsMax =   9.91754599972137E-04  1.28372433752488E-02
 cg2d: Sum(rhs),rhsMax =   9.92214037737723E-04  1.28374630307646E-02
 cg2d: Sum(rhs),rhsMax =   9.92693369764904E-04  1.28376828616743E-02
 cg2d: Sum(rhs),rhsMax =   9.93176696743385E-04  1.28379028571289E-02
 cg2d: Sum(rhs),rhsMax =   9.93680028503372E-04  1.28381230321712E-02
 cg2d: Sum(rhs),rhsMax =   9.94203459714547E-04  1.28383433745823E-02
 cg2d: Sum(rhs),rhsMax =   9.94747125849448E-04  1.28385638907615E-02
 cg2d: Sum(rhs),rhsMax =   9.95311338455826E-04  1.28387845746756E-02
 cg2d: Sum(rhs),rhsMax =   9.95896063000927E-04  1.28390054325930E-02
 cg2d: Sum(rhs),rhsMax =   9.96484525200608E-04  1.28392264536086E-02
 cg2d: Sum(rhs),rhsMax =   9.97093326102982E-04  1.28394476491760E-02
 cg2d: Sum(rhs),rhsMax =   9.97722644617708E-04  1.28396690076970E-02
 cg2d: Sum(rhs),rhsMax =   9.98372437058160E-04  1.28398905421195E-02
 cg2d: Sum(rhs),rhsMax =   9.99025078680098E-04  1.28401122387382E-02
 cg2d: Sum(rhs),rhsMax =   9.99697886511891E-04  1.28403341051115E-02
 cg2d: Sum(rhs),rhsMax =   1.00039105488004E-03  1.28405561422710E-02
 cg2d: Sum(rhs),rhsMax =   1.00110449363071E-03  1.28407783432065E-02
 cg2d: Sum(rhs),rhsMax =   1.00181874963715E-03  1.28410007122012E-02
 cg2d: Sum(rhs),rhsMax =   1.00255261365969E-03  1.28412232490062E-02
 cg2d: Sum(rhs),rhsMax =   1.00330631186203E-03  1.28414459465663E-02
 cg2d: Sum(rhs),rhsMax =   1.00407961208242E-03  1.28416688149175E-02
 cg2d: Sum(rhs),rhsMax =   1.00485116571668E-03  1.28418918441199E-02
 cg2d: Sum(rhs),rhsMax =   1.00561970955471E-03  1.28421150345344E-02
 cg2d: Sum(rhs),rhsMax =   1.00638336301849E-03  1.28423383924944E-02
 cg2d: Sum(rhs),rhsMax =   1.00716474231804E-03  1.28425619158541E-02
 cg2d: Sum(rhs),rhsMax =   1.00780757778484E-03  1.28427856160397E-02
 cg2d: Sum(rhs),rhsMax =   1.00846312475594E-03  1.28430094637497E-02
 cg2d: Sum(rhs),rhsMax =   1.00913106823130E-03  1.28432334744938E-02
 cg2d: Sum(rhs),rhsMax =   1.00978633138972E-03  1.28434576568248E-02
 cg2d: Sum(rhs),rhsMax =   1.01045313376870E-03  1.28436819919668E-02
 cg2d: Sum(rhs),rhsMax =   1.01113145620985E-03  1.28439064910996E-02
 cg2d: Sum(rhs),rhsMax =   1.01182100464473E-03  1.28441311500478E-02
 cg2d: Sum(rhs),rhsMax =   1.01252175240414E-03  1.28443559686506E-02
 cg2d: Sum(rhs),rhsMax =   1.01323342939161E-03  1.28445809529222E-02
 cg2d: Sum(rhs),rhsMax =   1.01346800568195E-03  1.28448060693227E-02
 cg2d: Sum(rhs),rhsMax =   1.01370408960967E-03  1.28450313736703E-02
 cg2d: Sum(rhs),rhsMax =   1.01394169237872E-03  1.28452568319643E-02
 cg2d: Sum(rhs),rhsMax =   1.01418081495429E-03  1.28454824497102E-02
 cg2d: Sum(rhs),rhsMax =   1.01442138670773E-03  1.28457082260594E-02
 cg2d: Sum(rhs),rhsMax =   1.01466339867719E-03  1.28459341628749E-02
 cg2d: Sum(rhs),rhsMax =   1.01490676072576E-03  1.28461602543140E-02
 cg2d: Sum(rhs),rhsMax =   1.01515150521104E-03  1.28463865022583E-02
 cg2d: Sum(rhs),rhsMax =   1.01539760815636E-03  1.28466129054221E-02
 cg2d: Sum(rhs),rhsMax =   1.01564499211814E-03  1.28468394692971E-02
 cg2d: Sum(rhs),rhsMax =   1.01589354763260E-03  1.28470661828920E-02
 cg2d: Sum(rhs),rhsMax =   1.01614340425752E-03  1.28472930611712E-02
 cg2d: Sum(rhs),rhsMax =   1.01632686386069E-03  1.28475201172803E-02
 cg2d: Sum(rhs),rhsMax =   1.01651102998747E-03  1.28477473001555E-02
 cg2d: Sum(rhs),rhsMax =   1.01669590771716E-03  1.28479746319374E-02
 cg2d: Sum(rhs),rhsMax =   1.01688140121231E-03  1.28482021211725E-02
 cg2d: Sum(rhs),rhsMax =   1.01706759112983E-03  1.28484297658983E-02
 cg2d: Sum(rhs),rhsMax =   1.01725436207741E-03  1.28486575653614E-02
 cg2d: Sum(rhs),rhsMax =   1.01744181690453E-03  1.28488855128415E-02
 cg2d: Sum(rhs),rhsMax =   1.01762984112282E-03  1.28491136122414E-02
 cg2d: Sum(rhs),rhsMax =   1.01781853254142E-03  1.28493418650094E-02
 cg2d: Sum(rhs),rhsMax =   1.01800767649893E-03  1.28495702707432E-02
(PID.TID 0000.0001)      cg2d_init_res =   2.68492426062625E-03
(PID.TID 0000.0001)      cg2d_iters(min,last) =      -1     368
(PID.TID 0000.0001)      cg2d_last_res =   9.75725015064181E-08
(PID.TID 0000.0001) // =======================================================
(PID.TID 0000.0001) // Begin MONITOR dynamic field statistics
(PID.TID 0000.0001) // =======================================================
(PID.TID 0000.0001) %MON time_tsnumber                =                 12384
(PID.TID 0000.0001) %MON time_secondsf                =   1.4860800000000E+07
(PID.TID 0000.0001) %MON dynstat_eta_max              =   1.1765964286574E-01
(PID.TID 0000.0001) %MON dynstat_eta_min              =  -2.8895195350141E-01
(PID.TID 0000.0001) %MON dynstat_eta_mean             =  -6.2262199866031E-08
(PID.TID 0000.0001) %MON dynstat_eta_sd               =   1.0550054563173E-01
(PID.TID 0000.0001) %MON dynstat_eta_del2             =   6.3219928675762E-07
(PID.TID 0000.0001) %MON dynstat_uvel_max             =   1.0979885036197E-01
(PID.TID 0000.0001) %MON dynstat_uvel_min             =  -1.1649690531029E-01
(PID.TID 0000.0001) %MON dynstat_uvel_mean            =   8.0130795492520E-08
(PID.TID 0000.0001) %MON dynstat_uvel_sd              =   4.3659057243503E-02
(PID.TID 0000.0001) %MON dynstat_uvel_del2            =   9.6069272960298E-07
(PID.TID 0000.0001) %MON dynstat_vvel_max             =   1.2416450299109E-01
(PID.TID 0000.0001) %MON dynstat_vvel_min             =  -1.0325071461815E-01
(PID.TID 0000.0001) %MON dynstat_vvel_mean            =  -1.0190662657358E-07
(PID.TID 0000.0001) %MON dynstat_vvel_sd              =   4.0769369329979E-02
(PID.TID 0000.0001) %MON dynstat_vvel_del2            =   1.2317295236647E-06
(PID.TID 0000.0001) %MON dynstat_wvel_max             =   1.0934062951710E-08
(PID.TID 0000.0001) %MON dynstat_wvel_min             =  -1.1703046774492E-08
(PID.TID 0000.0001) %MON dynstat_wvel_mean            =  -1.2347176104599E-21
(PID.TID 0000.0001) %MON dynstat_wvel_sd              =   4.0710911266754E-09
(PID.TID 0000.0001) %MON dynstat_wvel_del2            =   4.0680439341523E-14
(PID.TID 0000.0001) %MON dynstat_theta_max            =   2.0000000000000E+01
(PID.TID 0000.0001) %MON dynstat_theta_min            =   2.0000000000000E+01
(PID.TID 0000.0001) %MON dynstat_theta_mean           =   1.9999999999999E+01
(PID.TID 0000.0001) %MON dynstat_theta_sd             =   1.1972645097557E-12
(PID.TID 0000.0001) %MON dynstat_theta_del2           =   0.0000000000000E+00
(PID.TID 0000.0001) %MON dynstat_salt_max             =   3.0000000000000E+01
(PID.TID 0000.0001) %MON dynstat_salt_min             =   3.0000000000000E+01
(PID.TID 0000.0001) %MON dynstat_salt_mean            =   2.9999999999998E+01
(PID.TID 0000.0001) %MON dynstat_salt_sd              =   2.1529444893531E-12
(PID.TID 0000.0001) %MON dynstat_salt_del2            =   0.0000000000000E+00
(PID.TID 0000.0001) %MON trAdv_CFL_u_max              =   2.7958217295374E-02
(PID.TID 0000.0001) %MON trAdv_CFL_v_max              =   2.9797859192922E-02
(PID.TID 0000.0001) %MON trAdv_CFL_w_max              =   2.7937323732852E-09
(PID.TID 0000.0001) %MON advcfl_uvel_max              =   2.7959257274471E-02
(PID.TID 0000.0001) %MON advcfl_vvel_max              =   2.9799480717861E-02
(PID.TID 0000.0001) %MON advcfl_wvel_max              =   5.6174624517560E-09
(PID.TID 0000.0001) %MON advcfl_W_hf_max              =   0.0000000000000E+00
(PID.TID 0000.0001) %MON pe_b_mean                    =   1.1387888029106E-05
(PID.TID 0000.0001) %MON ke_max                       =   7.7478338041916E-03
(PID.TID 0000.0001) %MON ke_mean                      =   1.7760963411737E-03
(PID.TID 0000.0001) %MON ke_vol                       =   7.2529629296391E+15
(PID.TID 0000.0001) %MON vort_r_min                   =  -4.0884904520138E-06
(PID.TID 0000.0001) %MON vort_r_max                   =   3.1647604884588E-06
(PID.TID 0000.0001) %MON vort_a_mean                  =   1.0615000000000E-04
(PID.TID 0000.0001) %MON vort_a_sd                    =   3.6233790597427E-06
(PID.TID 0000.0001) %MON vort_p_mean                  =   1.1210870169429E-04
(PID.TID 0000.0001) %MON vort_p_sd                    =   2.1065360425091E-05
(PID.TID 0000.0001) %MON surfExpan_theta_mean         =  -2.4897985275276E-20
(PID.TID 0000.0001) %MON surfExpan_salt_mean          =  -3.7259316599127E-20
(PID.TID 0000.0001) // =======================================================
(PID.TID 0000.0001) // End MONITOR dynamic field statistics
(PID.TID 0000.0001) // =======================================================
 cg2d: Sum(rhs),rhsMax =   1.01819741557757E-03  1.28497988208301E-02
 cg2d: Sum(rhs),rhsMax =   1.01838772521874E-03  1.28500275217110E-02
 cg2d: Sum(rhs),rhsMax =   1.01857865843599E-03  1.28502563782922E-02
 cg2d: Sum(rhs),rhsMax =   1.01877001315599E-03  1.28504853829268E-02
 cg2d: Sum(rhs),rhsMax =   1.01896197863729E-03  1.28507145347542E-02
 cg2d: Sum(rhs),rhsMax =   1.01915440693551E-03  1.28509438368593E-02
 cg2d: Sum(rhs),rhsMax =   1.01934739881784E-03  1.28511732837994E-02
 cg2d: Sum(rhs),rhsMax =   1.01954080827459E-03  1.28514028786414E-02
 cg2d: Sum(rhs),rhsMax =   1.01973477934527E-03  1.28516326230214E-02
 cg2d: Sum(rhs),rhsMax =   1.01992923486344E-03  1.28518625146862E-02
 cg2d: Sum(rhs),rhsMax =   1.02012417853290E-03  1.28520925499599E-02
 cg2d: Sum(rhs),rhsMax =   1.02031951572405E-03  1.28523227323059E-02
 cg2d: Sum(rhs),rhsMax =   1.02051538409660E-03  1.28525530595783E-02
 cg2d: Sum(rhs),rhsMax =   1.02071162083621E-03  1.28527835320824E-02
 cg2d: Sum(rhs),rhsMax =   1.02090836566454E-03  1.28530141496957E-02
 cg2d: Sum(rhs),rhsMax =   1.02110545493765E-03  1.28532449142833E-02
 cg2d: Sum(rhs),rhsMax =   1.02130300287870E-03  1.28534758178138E-02
 cg2d: Sum(rhs),rhsMax =   1.02150098617287E-03  1.28537068650332E-02
 cg2d: Sum(rhs),rhsMax =   1.02169931569950E-03  1.28539380579851E-02
 cg2d: Sum(rhs),rhsMax =   1.02189811418569E-03  1.28541693898107E-02
 cg2d: Sum(rhs),rhsMax =   1.02209734637206E-03  1.28544008633050E-02
 cg2d: Sum(rhs),rhsMax =   1.02229692821918E-03  1.28546324819394E-02
 cg2d: Sum(rhs),rhsMax =   1.02249679714451E-03  1.28548642367423E-02
 cg2d: Sum(rhs),rhsMax =   1.02269713645713E-03  1.28550961356394E-02
 cg2d: Sum(rhs),rhsMax =   1.02289786043536E-03  1.28553281709532E-02
 cg2d: Sum(rhs),rhsMax =   1.02309898558166E-03  1.28555603480103E-02
 cg2d: Sum(rhs),rhsMax =   1.02327160934504E-03  1.28557926684188E-02
 cg2d: Sum(rhs),rhsMax =   1.02347334559915E-03  1.28560251236117E-02
 cg2d: Sum(rhs),rhsMax =   1.02364644276627E-03  1.28562577180842E-02
 cg2d: Sum(rhs),rhsMax =   1.02381989806113E-03  1.28564904477398E-02
 cg2d: Sum(rhs),rhsMax =   1.02399363796520E-03  1.28567233169943E-02
 cg2d: Sum(rhs),rhsMax =   1.02416769304048E-03  1.28569563230749E-02
 cg2d: Sum(rhs),rhsMax =   1.02434196041815E-03  1.28571894632172E-02
 cg2d: Sum(rhs),rhsMax =   1.02451652713944E-03  1.28574227381584E-02
 cg2d: Sum(rhs),rhsMax =   1.02469133717578E-03  1.28576561495535E-02
 cg2d: Sum(rhs),rhsMax =   1.02486641713279E-03  1.28578896982280E-02
 cg2d: Sum(rhs),rhsMax =   1.02504181338537E-03  1.28581233805794E-02
 cg2d: Sum(rhs),rhsMax =   1.02521746649895E-03  1.28583571967051E-02
 cg2d: Sum(rhs),rhsMax =   1.02539341925542E-03  1.28585911455283E-02
 cg2d: Sum(rhs),rhsMax =   1.02556957220979E-03  1.28588252272949E-02
 cg2d: Sum(rhs),rhsMax =   1.02574602437158E-03  1.28590594424446E-02
 cg2d: Sum(rhs),rhsMax =   1.02592261466667E-03  1.28592937896067E-02
 cg2d: Sum(rhs),rhsMax =   1.02609956694987E-03  1.28595282682730E-02
 cg2d: Sum(rhs),rhsMax =   1.02627666020622E-03  1.28597628762396E-02
 cg2d: Sum(rhs),rhsMax =   1.02645403892170E-03  1.28599976173960E-02
 cg2d: Sum(rhs),rhsMax =   1.02663170186617E-03  1.28602324872607E-02
 cg2d: Sum(rhs),rhsMax =   1.02680941570354E-03  1.28604674834804E-02
 cg2d: Sum(rhs),rhsMax =   1.02698754671207E-03  1.28607026138697E-02
 cg2d: Sum(rhs),rhsMax =   1.02716596089717E-03  1.28609378738980E-02
 cg2d: Sum(rhs),rhsMax =   1.02734455281856E-03  1.28611732595771E-02
 cg2d: Sum(rhs),rhsMax =   1.02752344236950E-03  1.28614087733947E-02
 cg2d: Sum(rhs),rhsMax =   1.02770256534816E-03  1.28616444147191E-02
 cg2d: Sum(rhs),rhsMax =   1.02788195089453E-03  1.28618801830617E-02
 cg2d: Sum(rhs),rhsMax =   1.02806153476654E-03  1.28621160763329E-02
 cg2d: Sum(rhs),rhsMax =   1.02824138793233E-03  1.28623520981051E-02
 cg2d: Sum(rhs),rhsMax =   1.02842140383014E-03  1.28625882450955E-02
 cg2d: Sum(rhs),rhsMax =   1.02860170486064E-03  1.28628245148449E-02
 cg2d: Sum(rhs),rhsMax =   1.02878220042715E-03  1.28630609087736E-02
 cg2d: Sum(rhs),rhsMax =   1.02896295468669E-03  1.28632974276566E-02
 cg2d: Sum(rhs),rhsMax =   1.02914392727286E-03  1.28635340700947E-02
 cg2d: Sum(rhs),rhsMax =   1.02932511948540E-03  1.28637708332629E-02
 cg2d: Sum(rhs),rhsMax =   1.02950647770182E-03  1.28640077176418E-02
 cg2d: Sum(rhs),rhsMax =   1.02968810229832E-03  1.28642447273001E-02
 cg2d: Sum(rhs),rhsMax =   1.02986994862767E-03  1.28644818568216E-02
 cg2d: Sum(rhs),rhsMax =   1.03005202464118E-03  1.28647191074120E-02
 cg2d: Sum(rhs),rhsMax =   1.03023435734134E-03  1.28649564781138E-02
 cg2d: Sum(rhs),rhsMax =   1.03041686286737E-03  1.28651939690493E-02
 cg2d: Sum(rhs),rhsMax =   1.03059965218004E-03  1.28654315795326E-02
 cg2d: Sum(rhs),rhsMax =   1.03078258243456E-03  1.28656693094956E-02
 cg2d: Sum(rhs),rhsMax =   1.03096575364598E-03  1.28659071563833E-02
 cg2d: Sum(rhs),rhsMax =   1.03114915803792E-03  1.28661451239626E-02
 cg2d: Sum(rhs),rhsMax =   1.03133245811580E-03  1.28663832038612E-02
(PID.TID 0000.0001)      cg2d_init_res =   2.65584263829867E-03
(PID.TID 0000.0001)      cg2d_iters(min,last) =      -1     369
(PID.TID 0000.0001)      cg2d_last_res =   8.80007771124885E-08
(PID.TID 0000.0001) // =======================================================
(PID.TID 0000.0001) // Begin MONITOR dynamic field statistics
(PID.TID 0000.0001) // =======================================================
(PID.TID 0000.0001) %MON time_tsnumber                =                 12456
(PID.TID 0000.0001) %MON time_secondsf                =   1.4947200000000E+07
(PID.TID 0000.0001) %MON dynstat_eta_max              =   1.1760603727328E-01
(PID.TID 0000.0001) %MON dynstat_eta_min              =  -2.8971996803316E-01
(PID.TID 0000.0001) %MON dynstat_eta_mean             =  -6.3159215042948E-08
(PID.TID 0000.0001) %MON dynstat_eta_sd               =   1.0574592761483E-01
(PID.TID 0000.0001) %MON dynstat_eta_del2             =   6.3373210958521E-07
(PID.TID 0000.0001) %MON dynstat_uvel_max             =   1.1028643583196E-01
(PID.TID 0000.0001) %MON dynstat_uvel_min             =  -1.1681007966760E-01
(PID.TID 0000.0001) %MON dynstat_uvel_mean            =   6.4371712351685E-08
(PID.TID 0000.0001) %MON dynstat_uvel_sd              =   4.3800649649413E-02
(PID.TID 0000.0001) %MON dynstat_uvel_del2            =   9.6406180366728E-07
(PID.TID 0000.0001) %MON dynstat_vvel_max             =   1.2464722399404E-01
(PID.TID 0000.0001) %MON dynstat_vvel_min             =  -1.0368566627489E-01
(PID.TID 0000.0001) %MON dynstat_vvel_mean            =  -1.1240487835345E-07
(PID.TID 0000.0001) %MON dynstat_vvel_sd              =   4.0851351196403E-02
(PID.TID 0000.0001) %MON dynstat_vvel_del2            =   1.2306308915310E-06
(PID.TID 0000.0001) %MON dynstat_wvel_max             =   1.1126722909685E-08
(PID.TID 0000.0001) %MON dynstat_wvel_min             =  -1.0894115567207E-08
(PID.TID 0000.0001) %MON dynstat_wvel_mean            =  -7.3723552343081E-21
(PID.TID 0000.0001) %MON dynstat_wvel_sd              =   4.0258221176232E-09
(PID.TID 0000.0001) %MON dynstat_wvel_del2            =   4.0157451805986E-14
(PID.TID 0000.0001) %MON dynstat_theta_max            =   2.0000000000000E+01
(PID.TID 0000.0001) %MON dynstat_theta_min            =   2.0000000000000E+01
(PID.TID 0000.0001) %MON dynstat_theta_mean           =   1.9999999999999E+01
(PID.TID 0000.0001) %MON dynstat_theta_sd             =   1.1972645097557E-12
(PID.TID 0000.0001) %MON dynstat_theta_del2           =   0.0000000000000E+00
(PID.TID 0000.0001) %MON dynstat_salt_max             =   3.0000000000000E+01
(PID.TID 0000.0001) %MON dynstat_salt_min             =   3.0000000000000E+01
(PID.TID 0000.0001) %MON dynstat_salt_mean            =   2.9999999999998E+01
(PID.TID 0000.0001) %MON dynstat_salt_sd              =   2.1529444893531E-12
(PID.TID 0000.0001) %MON dynstat_salt_del2            =   0.0000000000000E+00
(PID.TID 0000.0001) %MON trAdv_CFL_u_max              =   2.8033371952077E-02
(PID.TID 0000.0001) %MON trAdv_CFL_v_max              =   2.9913736135490E-02
(PID.TID 0000.0001) %MON trAdv_CFL_w_max              =   2.8451985360800E-09
(PID.TID 0000.0001) %MON advcfl_uvel_max              =   2.8034419120224E-02
(PID.TID 0000.0001) %MON advcfl_vvel_max              =   2.9915333758569E-02
(PID.TID 0000.0001) %MON advcfl_wvel_max              =   5.3408269966487E-09
(PID.TID 0000.0001) %MON advcfl_W_hf_max              =   0.0000000000000E+00
(PID.TID 0000.0001) %MON pe_b_mean                    =   1.1440923437317E-05
(PID.TID 0000.0001) %MON ke_max                       =   7.8085073578750E-03
(PID.TID 0000.0001) %MON ke_mean                      =   1.7855909338088E-03
(PID.TID 0000.0001) %MON ke_vol                       =   7.2529629296391E+15
(PID.TID 0000.0001) %MON vort_r_min                   =  -4.0935535639306E-06
(PID.TID 0000.0001) %MON vort_r_max                   =   3.1558878841524E-06
(PID.TID 0000.0001) %MON vort_a_mean                  =   1.0615000000000E-04
(PID.TID 0000.0001) %MON vort_a_sd                    =   3.6236666751821E-06
(PID.TID 0000.0001) %MON vort_p_mean                  =   1.1210870169429E-04
(PID.TID 0000.0001) %MON vort_p_sd                    =   2.1065382547814E-05
(PID.TID 0000.0001) %MON surfExpan_theta_mean         =  -1.4768678675036E-19
(PID.TID 0000.0001) %MON surfExpan_salt_mean          =  -2.2156342234863E-19
(PID.TID 0000.0001) // =======================================================
(PID.TID 0000.0001) // End MONITOR dynamic field statistics
(PID.TID 0000.0001) // =======================================================
 cg2d: Sum(rhs),rhsMax =   1.03151620647162E-03  1.28666214081899E-02
 cg2d: Sum(rhs),rhsMax =   1.03170014465976E-03  1.28668597266048E-02
 cg2d: Sum(rhs),rhsMax =   1.03188441758572E-03  1.28670981602290E-02
 cg2d: Sum(rhs),rhsMax =   1.03206882521707E-03  1.28673367065913E-02
 cg2d: Sum(rhs),rhsMax =   1.03225349346417E-03  1.28675753688249E-02
 cg2d: Sum(rhs),rhsMax =   1.03243835716289E-03  1.28678141427082E-02
 cg2d: Sum(rhs),rhsMax =   1.03262343642644E-03  1.28680530356434E-02
 cg2d: Sum(rhs),rhsMax =   1.03280873857000E-03  1.28682920384408E-02
 cg2d: Sum(rhs),rhsMax =   1.03299423484276E-03  1.28685311558356E-02
 cg2d: Sum(rhs),rhsMax =   1.03317987365901E-03  1.28687703819878E-02
 cg2d: Sum(rhs),rhsMax =   1.03336575105989E-03  1.28690097267001E-02
 cg2d: Sum(rhs),rhsMax =   1.03355183551945E-03  1.28692491798190E-02
 cg2d: Sum(rhs),rhsMax =   1.03373813441908E-03  1.28694887438501E-02
 cg2d: Sum(rhs),rhsMax =   1.03392467408889E-03  1.28697284168100E-02
 cg2d: Sum(rhs),rhsMax =   1.03411138199210E-03  1.28699682006754E-02
 cg2d: Sum(rhs),rhsMax =   1.03429828543061E-03  1.28702080938932E-02
 cg2d: Sum(rhs),rhsMax =   1.03448536329247E-03  1.28704480940800E-02
 cg2d: Sum(rhs),rhsMax =   1.03467268719396E-03  1.28706882002789E-02
 cg2d: Sum(rhs),rhsMax =   1.03486019841408E-03  1.28709284179567E-02
 cg2d: Sum(rhs),rhsMax =   1.03504793032046E-03  1.28711687420214E-02
 cg2d: Sum(rhs),rhsMax =   1.03526745080572E-03  1.28714091754287E-02
 cg2d: Sum(rhs),rhsMax =   1.03548713137386E-03  1.28716497122043E-02
 cg2d: Sum(rhs),rhsMax =   1.03570715634356E-03  1.28718903549333E-02
 cg2d: Sum(rhs),rhsMax =   1.03592732797629E-03  1.28721311025714E-02
 cg2d: Sum(rhs),rhsMax =   1.03614782028046E-03  1.28723719566831E-02
 cg2d: Sum(rhs),rhsMax =   1.03636837756397E-03  1.28726129115473E-02
 cg2d: Sum(rhs),rhsMax =   1.03658928719358E-03  1.28728539712469E-02
 cg2d: Sum(rhs),rhsMax =   1.03681031924199E-03  1.28730951348120E-02
 cg2d: Sum(rhs),rhsMax =   1.03703152832284E-03  1.28733363996503E-02
 cg2d: Sum(rhs),rhsMax =   1.03725308263833E-03  1.28735777638496E-02
 cg2d: Sum(rhs),rhsMax =   1.03747488858333E-03  1.28738192354897E-02
 cg2d: Sum(rhs),rhsMax =   1.03769687025369E-03  1.28740608020114E-02
 cg2d: Sum(rhs),rhsMax =   1.03791912873182E-03  1.28743024743537E-02
 cg2d: Sum(rhs),rhsMax =   1.03814148472920E-03  1.28745442439374E-02
 cg2d: Sum(rhs),rhsMax =   1.03836414024303E-03  1.28747861146088E-02
 cg2d: Sum(rhs),rhsMax =   1.03858682267119E-03  1.28750280824585E-02
 cg2d: Sum(rhs),rhsMax =   1.03880985722626E-03  1.28752701476216E-02
 cg2d: Sum(rhs),rhsMax =   1.03903311216630E-03  1.28755123128212E-02
 cg2d: Sum(rhs),rhsMax =   1.03925663321152E-03  1.28757545738428E-02
 cg2d: Sum(rhs),rhsMax =   1.03948026496263E-03  1.28759969309850E-02
 cg2d: Sum(rhs),rhsMax =   1.03970422734203E-03  1.28762393824365E-02
 cg2d: Sum(rhs),rhsMax =   1.03992822242683E-03  1.28764819326023E-02
 cg2d: Sum(rhs),rhsMax =   1.04015253052010E-03  1.28767245761059E-02
 cg2d: Sum(rhs),rhsMax =   1.04037704490800E-03  1.28769673188197E-02
 cg2d: Sum(rhs),rhsMax =   1.04060173615725E-03  1.28772101482265E-02
 cg2d: Sum(rhs),rhsMax =   1.04082665316002E-03  1.28774530780923E-02
 cg2d: Sum(rhs),rhsMax =   1.04105179496403E-03  1.28776960950117E-02
 cg2d: Sum(rhs),rhsMax =   1.04127713507070E-03  1.28779392079721E-02
 cg2d: Sum(rhs),rhsMax =   1.04150270680898E-03  1.28781824093125E-02
 cg2d: Sum(rhs),rhsMax =   1.04172843364947E-03  1.28784257076315E-02
 cg2d: Sum(rhs),rhsMax =   1.04195438353903E-03  1.28786690898223E-02
 cg2d: Sum(rhs),rhsMax =   1.04218051731003E-03  1.28789125661824E-02
 cg2d: Sum(rhs),rhsMax =   1.04240692039560E-03  1.28791561292546E-02
 cg2d: Sum(rhs),rhsMax =   1.04263346103312E-03  1.28793997875540E-02
 cg2d: Sum(rhs),rhsMax =   1.04286023161963E-03  1.28796435285835E-02
 cg2d: Sum(rhs),rhsMax =   1.04308725779539E-03  1.28798873608987E-02
 cg2d: Sum(rhs),rhsMax =   1.04331437566598E-03  1.28801312793509E-02
 cg2d: Sum(rhs),rhsMax =   1.04354168679041E-03  1.28803752866518E-02
 cg2d: Sum(rhs),rhsMax =   1.04376922331168E-03  1.28806193737506E-02
 cg2d: Sum(rhs),rhsMax =   1.04399705379188E-03  1.28808635544573E-02
 cg2d: Sum(rhs),rhsMax =   1.04422502060864E-03  1.28811078162527E-02
 cg2d: Sum(rhs),rhsMax =   1.04445324110420E-03  1.28813521662318E-02
 cg2d: Sum(rhs),rhsMax =   1.04468141418051E-03  1.28815965991992E-02
 cg2d: Sum(rhs),rhsMax =   1.04490998684220E-03  1.28818411149934E-02
 cg2d: Sum(rhs),rhsMax =   1.04513866695419E-03  1.28820857130551E-02
 cg2d: Sum(rhs),rhsMax =   1.04536762434693E-03  1.28823303947970E-02
 cg2d: Sum(rhs),rhsMax =   1.04559673407607E-03  1.28825751555139E-02
 cg2d: Sum(rhs),rhsMax =   1.04582603781824E-03  1.28828200055913E-02
 cg2d: Sum(rhs),rhsMax =   1.04605562617961E-03  1.28830649290839E-02
 cg2d: Sum(rhs),rhsMax =   1.04628523281722E-03  1.28833099359897E-02
 cg2d: Sum(rhs),rhsMax =   1.04651512016372E-03  1.28835550201233E-02
 cg2d: Sum(rhs),rhsMax =   1.04674516587529E-03  1.28838001900088E-02
(PID.TID 0000.0001)      cg2d_init_res =   2.62434904273834E-03
(PID.TID 0000.0001)      cg2d_iters(min,last) =      -1     368
(PID.TID 0000.0001)      cg2d_last_res =   9.83430775717237E-08
(PID.TID 0000.0001) // =======================================================
(PID.TID 0000.0001) // Begin MONITOR dynamic field statistics
(PID.TID 0000.0001) // =======================================================
(PID.TID 0000.0001) %MON time_tsnumber                =                 12528
(PID.TID 0000.0001) %MON time_secondsf                =   1.5033600000000E+07
(PID.TID 0000.0001) %MON dynstat_eta_max              =   1.1757349291319E-01
(PID.TID 0000.0001) %MON dynstat_eta_min              =  -2.9049138988991E-01
(PID.TID 0000.0001) %MON dynstat_eta_mean             =  -6.4192590585218E-08
(PID.TID 0000.0001) %MON dynstat_eta_sd               =   1.0599227143652E-01
(PID.TID 0000.0001) %MON dynstat_eta_del2             =   6.3529298774720E-07
(PID.TID 0000.0001) %MON dynstat_uvel_max             =   1.1075156259794E-01
(PID.TID 0000.0001) %MON dynstat_uvel_min             =  -1.1712486276554E-01
(PID.TID 0000.0001) %MON dynstat_uvel_mean            =   4.7237908683981E-08
(PID.TID 0000.0001) %MON dynstat_uvel_sd              =   4.3942742719098E-02
(PID.TID 0000.0001) %MON dynstat_uvel_del2            =   9.6743377945391E-07
(PID.TID 0000.0001) %MON dynstat_vvel_max             =   1.2512339733635E-01
(PID.TID 0000.0001) %MON dynstat_vvel_min             =  -1.0408045841416E-01
(PID.TID 0000.0001) %MON dynstat_vvel_mean            =  -1.2010121521675E-07
(PID.TID 0000.0001) %MON dynstat_vvel_sd              =   4.0932004069598E-02
(PID.TID 0000.0001) %MON dynstat_vvel_del2            =   1.2301876072300E-06
(PID.TID 0000.0001) %MON dynstat_wvel_max             =   1.1215136112296E-08
(PID.TID 0000.0001) %MON dynstat_wvel_min             =  -9.9932259041816E-09
(PID.TID 0000.0001) %MON dynstat_wvel_mean            =   1.3353003593287E-20
(PID.TID 0000.0001) %MON dynstat_wvel_sd              =   3.9874266615021E-09
(PID.TID 0000.0001) %MON dynstat_wvel_del2            =   4.0206353154163E-14
(PID.TID 0000.0001) %MON dynstat_theta_max            =   2.0000000000000E+01
(PID.TID 0000.0001) %MON dynstat_theta_min            =   2.0000000000000E+01
(PID.TID 0000.0001) %MON dynstat_theta_mean           =   1.9999999999999E+01
(PID.TID 0000.0001) %MON dynstat_theta_sd             =   1.1972645097557E-12
(PID.TID 0000.0001) %MON dynstat_theta_del2           =   0.0000000000000E+00
(PID.TID 0000.0001) %MON dynstat_salt_max             =   3.0000000000000E+01
(PID.TID 0000.0001) %MON dynstat_salt_min             =   3.0000000000000E+01
(PID.TID 0000.0001) %MON dynstat_salt_mean            =   2.9999999999998E+01
(PID.TID 0000.0001) %MON dynstat_salt_sd              =   2.1529444893531E-12
(PID.TID 0000.0001) %MON dynstat_salt_del2            =   0.0000000000000E+00
(PID.TID 0000.0001) %MON trAdv_CFL_u_max              =   2.8108916358845E-02
(PID.TID 0000.0001) %MON trAdv_CFL_v_max              =   3.0028037533254E-02
(PID.TID 0000.0001) %MON trAdv_CFL_w_max              =   2.8713250617246E-09
(PID.TID 0000.0001) %MON advcfl_uvel_max              =   2.8109967063729E-02
(PID.TID 0000.0001) %MON advcfl_vvel_max              =   3.0029615360725E-02
(PID.TID 0000.0001) %MON advcfl_wvel_max              =   5.3832653339021E-09
(PID.TID 0000.0001) %MON advcfl_W_hf_max              =   0.0000000000000E+00
(PID.TID 0000.0001) %MON pe_b_mean                    =   1.1494290667903E-05
(PID.TID 0000.0001) %MON ke_max                       =   7.8686219791001E-03
(PID.TID 0000.0001) %MON ke_mean                      =   1.7950799223946E-03
(PID.TID 0000.0001) %MON ke_vol                       =   7.2529629296391E+15
(PID.TID 0000.0001) %MON vort_r_min                   =  -4.0988534675432E-06
(PID.TID 0000.0001) %MON vort_r_max                   =   3.1494175168707E-06
(PID.TID 0000.0001) %MON vort_a_mean                  =   1.0615000000000E-04
(PID.TID 0000.0001) %MON vort_a_sd                    =   3.6239611414030E-06
(PID.TID 0000.0001) %MON vort_p_mean                  =   1.1210870169429E-04
(PID.TID 0000.0001) %MON vort_p_sd                    =   2.1065404555584E-05
(PID.TID 0000.0001) %MON surfExpan_theta_mean         =   2.6676023017580E-19
(PID.TID 0000.0001) %MON surfExpan_salt_mean          =   4.0019625314593E-19
(PID.TID 0000.0001) // =======================================================
(PID.TID 0000.0001) // End MONITOR dynamic field statistics
(PID.TID 0000.0001) // =======================================================
 cg2d: Sum(rhs),rhsMax =   1.04697546708685E-03  1.28840454297644E-02
 cg2d: Sum(rhs),rhsMax =   1.04720596695112E-03  1.28842907528203E-02
 cg2d: Sum(rhs),rhsMax =   1.04743662499462E-03  1.28845361509827E-02
 cg2d: Sum(rhs),rhsMax =   1.04766744106818E-03  1.28847816324236E-02
 cg2d: Sum(rhs),rhsMax =   1.04789845207957E-03  1.28850271851935E-02
 cg2d: Sum(rhs),rhsMax =   1.04812968448505E-03  1.28852728145086E-02
 cg2d: Sum(rhs),rhsMax =   1.04836112898148E-03  1.28855185168096E-02
 cg2d: Sum(rhs),rhsMax =   1.04859273412913E-03  1.28857642989454E-02
 cg2d: Sum(rhs),rhsMax =   1.04882455915366E-03  1.28860101511064E-02
 cg2d: Sum(rhs),rhsMax =   1.04905637537589E-03  1.28862560819611E-02
 cg2d: Sum(rhs),rhsMax =   1.04928854867496E-03  1.28865020800662E-02
 cg2d: Sum(rhs),rhsMax =   1.04952079373420E-03  1.28867481566646E-02
 cg2d: Sum(rhs),rhsMax =   1.04975333790188E-03  1.28869942994840E-02
 cg2d: Sum(rhs),rhsMax =   1.04998595701080E-03  1.28872405182034E-02
 cg2d: Sum(rhs),rhsMax =   1.05021883816977E-03  1.28874868040860E-02
 cg2d: Sum(rhs),rhsMax =   1.05045181336490E-03  1.28877331651488E-02
 cg2d: Sum(rhs),rhsMax =   1.05068505960271E-03  1.28879795916561E-02
 cg2d: Sum(rhs),rhsMax =   1.05091827020428E-03  1.28882260917311E-02
 cg2d: Sum(rhs),rhsMax =   1.05115179849682E-03  1.28884726551213E-02
 cg2d: Sum(rhs),rhsMax =   1.05138555823685E-03  1.28887192929826E-02
 cg2d: Sum(rhs),rhsMax =   1.05161949705004E-03  1.28889659930779E-02
 cg2d: Sum(rhs),rhsMax =   1.05185352829015E-03  1.28892127653720E-02
 cg2d: Sum(rhs),rhsMax =   1.05208774528920E-03  1.28894595978443E-02
 cg2d: Sum(rhs),rhsMax =   1.05232215710323E-03  1.28897065001997E-02
 cg2d: Sum(rhs),rhsMax =   1.05255663738947E-03  1.28899534641845E-02
 cg2d: Sum(rhs),rhsMax =   1.05279141431577E-03  1.28902005002652E-02
 cg2d: Sum(rhs),rhsMax =   1.05302634051003E-03  1.28904475942020E-02
 cg2d: Sum(rhs),rhsMax =   1.05326146019455E-03  1.28906947546204E-02
 cg2d: Sum(rhs),rhsMax =   1.05349680002864E-03  1.28909419741028E-02
 cg2d: Sum(rhs),rhsMax =   1.05373226182215E-03  1.28911892606064E-02
 cg2d: Sum(rhs),rhsMax =   1.05396786914895E-03  1.28914366054084E-02
 cg2d: Sum(rhs),rhsMax =   1.05420362572036E-03  1.28916840156249E-02
 cg2d: Sum(rhs),rhsMax =   1.05443936669518E-03  1.28919314849541E-02
 cg2d: Sum(rhs),rhsMax =   1.05467542756800E-03  1.28921790153496E-02
 cg2d: Sum(rhs),rhsMax =   1.05491167121730E-03  1.28924266004262E-02
 cg2d: Sum(rhs),rhsMax =   1.05514805054289E-03  1.28926742504399E-02
 cg2d: Sum(rhs),rhsMax =   1.05538462378159E-03  1.28929219555973E-02
 cg2d: Sum(rhs),rhsMax =   1.05562135453648E-03  1.28931697242103E-02
 cg2d: Sum(rhs),rhsMax =   1.05585824284711E-03  1.28934175436937E-02
 cg2d: Sum(rhs),rhsMax =   1.05609522649907E-03  1.28936654244956E-02
 cg2d: Sum(rhs),rhsMax =   1.05633244563514E-03  1.28939133552102E-02
 cg2d: Sum(rhs),rhsMax =   1.05656978449976E-03  1.28941613481646E-02
 cg2d: Sum(rhs),rhsMax =   1.05680727402030E-03  1.28944093913585E-02
 cg2d: Sum(rhs),rhsMax =   1.05704493744626E-03  1.28946574945551E-02
 cg2d: Sum(rhs),rhsMax =   1.05728275571785E-03  1.28949056471390E-02
 cg2d: Sum(rhs),rhsMax =   1.05752068053216E-03  1.28951538577516E-02
 cg2d: Sum(rhs),rhsMax =   1.05775878486644E-03  1.28954021158436E-02
 cg2d: Sum(rhs),rhsMax =   1.05799679512859E-03  1.28956504301668E-02
 cg2d: Sum(rhs),rhsMax =   1.05823510428161E-03  1.28958987942895E-02
 cg2d: Sum(rhs),rhsMax =   1.05847365177849E-03  1.28961472129017E-02
 cg2d: Sum(rhs),rhsMax =   1.05871223230921E-03  1.28963956776594E-02
 cg2d: Sum(rhs),rhsMax =   1.05895104024856E-03  1.28966441942939E-02
 cg2d: Sum(rhs),rhsMax =   1.05919003005868E-03  1.28968927573653E-02
 cg2d: Sum(rhs),rhsMax =   1.05942911780354E-03  1.28971413743682E-02
 cg2d: Sum(rhs),rhsMax =   1.05966831243324E-03  1.28973900351254E-02
 cg2d: Sum(rhs),rhsMax =   1.05990767918339E-03  1.28976387466186E-02
 cg2d: Sum(rhs),rhsMax =   1.06014720798237E-03  1.28978875019555E-02
 cg2d: Sum(rhs),rhsMax =   1.06038686129598E-03  1.28981363072911E-02
 cg2d: Sum(rhs),rhsMax =   1.06062664243426E-03  1.28983851550666E-02
 cg2d: Sum(rhs),rhsMax =   1.06086647385035E-03  1.28986340530173E-02
 cg2d: Sum(rhs),rhsMax =   1.06110651625360E-03  1.28988829909150E-02
 cg2d: Sum(rhs),rhsMax =   1.06134669490585E-03  1.28991319774988E-02
 cg2d: Sum(rhs),rhsMax =   1.06158702813455E-03  1.28993810032458E-02
 cg2d: Sum(rhs),rhsMax =   1.06182749353670E-03  1.28996300777445E-02
 cg2d: Sum(rhs),rhsMax =   1.06206803860144E-03  1.28998791883642E-02
 cg2d: Sum(rhs),rhsMax =   1.06230874460564E-03  1.29001283442486E-02
 cg2d: Sum(rhs),rhsMax =   1.06254954423665E-03  1.29003775394371E-02
 cg2d: Sum(rhs),rhsMax =   1.06279049783197E-03  1.29006267800025E-02
 cg2d: Sum(rhs),rhsMax =   1.06303159195273E-03  1.29008760557949E-02
 cg2d: Sum(rhs),rhsMax =   1.06327281627003E-03  1.29011253746501E-02
 cg2d: Sum(rhs),rhsMax =   1.06351413735962E-03  1.29013747289172E-02
 cg2d: Sum(rhs),rhsMax =   1.06375557226738E-03  1.29016241251923E-02
(PID.TID 0000.0001)      cg2d_init_res =   2.59210111536615E-03
(PID.TID 0000.0001)      cg2d_iters(min,last) =      -1     368
(PID.TID 0000.0001)      cg2d_last_res =   9.57177548188731E-08
(PID.TID 0000.0001) // =======================================================
(PID.TID 0000.0001) // Begin MONITOR dynamic field statistics
(PID.TID 0000.0001) // =======================================================
(PID.TID 0000.0001) %MON time_tsnumber                =                 12600
(PID.TID 0000.0001) %MON time_secondsf                =   1.5120000000000E+07
(PID.TID 0000.0001) %MON dynstat_eta_max              =   1.1757582203267E-01
(PID.TID 0000.0001) %MON dynstat_eta_min              =  -2.9126815554500E-01
(PID.TID 0000.0001) %MON dynstat_eta_mean             =  -6.5326493183154E-08
(PID.TID 0000.0001) %MON dynstat_eta_sd               =   1.0623946225811E-01
(PID.TID 0000.0001) %MON dynstat_eta_del2             =   6.3688559237204E-07
(PID.TID 0000.0001) %MON dynstat_uvel_max             =   1.1119194310834E-01
(PID.TID 0000.0001) %MON dynstat_uvel_min             =  -1.1744012117586E-01
(PID.TID 0000.0001) %MON dynstat_uvel_mean            =   2.9575841294575E-08
(PID.TID 0000.0001) %MON dynstat_uvel_sd              =   4.4083986788576E-02
(PID.TID 0000.0001) %MON dynstat_uvel_del2            =   9.7076386842039E-07
(PID.TID 0000.0001) %MON dynstat_vvel_max             =   1.2559425160841E-01
(PID.TID 0000.0001) %MON dynstat_vvel_min             =  -1.0443636721725E-01
(PID.TID 0000.0001) %MON dynstat_vvel_mean            =  -1.2484302440230E-07
(PID.TID 0000.0001) %MON dynstat_vvel_sd              =   4.1012927535164E-02
(PID.TID 0000.0001) %MON dynstat_vvel_del2            =   1.2304453045024E-06
(PID.TID 0000.0001) %MON dynstat_wvel_max             =   1.1218343287765E-08
(PID.TID 0000.0001) %MON dynstat_wvel_min             =  -9.4677950680489E-09
(PID.TID 0000.0001) %MON dynstat_wvel_mean            =   2.4140032633373E-21
(PID.TID 0000.0001) %MON dynstat_wvel_sd              =   3.9547915515222E-09
(PID.TID 0000.0001) %MON dynstat_wvel_del2            =   3.9818312115796E-14
(PID.TID 0000.0001) %MON dynstat_theta_max            =   2.0000000000000E+01
(PID.TID 0000.0001) %MON dynstat_theta_min            =   2.0000000000000E+01
(PID.TID 0000.0001) %MON dynstat_theta_mean           =   1.9999999999999E+01
(PID.TID 0000.0001) %MON dynstat_theta_sd             =   1.1972645097557E-12
(PID.TID 0000.0001) %MON dynstat_theta_del2           =   0.0000000000000E+00
(PID.TID 0000.0001) %MON dynstat_salt_max             =   3.0000000000000E+01
(PID.TID 0000.0001) %MON dynstat_salt_min             =   3.0000000000000E+01
(PID.TID 0000.0001) %MON dynstat_salt_mean            =   2.9999999999998E+01
(PID.TID 0000.0001) %MON dynstat_salt_sd              =   2.1529444893531E-12
(PID.TID 0000.0001) %MON dynstat_salt_del2            =   0.0000000000000E+00
(PID.TID 0000.0001) %MON trAdv_CFL_u_max              =   2.8184578716065E-02
(PID.TID 0000.0001) %MON trAdv_CFL_v_max              =   3.0141058310619E-02
(PID.TID 0000.0001) %MON trAdv_CFL_w_max              =   2.8787920935853E-09
(PID.TID 0000.0001) %MON advcfl_uvel_max              =   2.8185629082207E-02
(PID.TID 0000.0001) %MON advcfl_vvel_max              =   3.0142620386019E-02
(PID.TID 0000.0001) %MON advcfl_wvel_max              =   5.3848047781270E-09
(PID.TID 0000.0001) %MON advcfl_W_hf_max              =   0.0000000000000E+00
(PID.TID 0000.0001) %MON pe_b_mean                    =   1.1547966210037E-05
(PID.TID 0000.0001) %MON ke_max                       =   7.9283159694984E-03
(PID.TID 0000.0001) %MON ke_mean                      =   1.8045692747363E-03
(PID.TID 0000.0001) %MON ke_vol                       =   7.2529629296391E+15
(PID.TID 0000.0001) %MON vort_r_min                   =  -4.1043296473468E-06
(PID.TID 0000.0001) %MON vort_r_max                   =   3.1456525645420E-06
(PID.TID 0000.0001) %MON vort_a_mean                  =   1.0615000000000E-04
(PID.TID 0000.0001) %MON vort_a_sd                    =   3.6242626987481E-06
(PID.TID 0000.0001) %MON vort_p_mean                  =   1.1210870169429E-04
(PID.TID 0000.0001) %MON vort_p_sd                    =   2.1065428462294E-05
(PID.TID 0000.0001) %MON surfExpan_theta_mean         =   4.7998338289162E-20
(PID.TID 0000.0001) %MON surfExpan_salt_mean          =   7.2013212734215E-20
(PID.TID 0000.0001) // =======================================================
(PID.TID 0000.0001) // End MONITOR dynamic field statistics
(PID.TID 0000.0001) // =======================================================
 cg2d: Sum(rhs),rhsMax =   1.06399702648457E-03  1.29018735565472E-02
 cg2d: Sum(rhs),rhsMax =   1.06423869053981E-03  1.29021230283246E-02
 cg2d: Sum(rhs),rhsMax =   1.06448051866641E-03  1.29023725330276E-02
 cg2d: Sum(rhs),rhsMax =   1.06472222775652E-03  1.29026220794655E-02
 cg2d: Sum(rhs),rhsMax =   1.06496411934444E-03  1.29028716553121E-02
 cg2d: Sum(rhs),rhsMax =   1.06520616649542E-03  1.29031212705128E-02
 cg2d: Sum(rhs),rhsMax =   1.06544843083478E-03  1.29033709141080E-02
 cg2d: Sum(rhs),rhsMax =   1.06569080077536E-03  1.29036205991127E-02
 cg2d: Sum(rhs),rhsMax =   1.06593319067345E-03  1.29038703130360E-02
 cg2d: Sum(rhs),rhsMax =   1.06617574619948E-03  1.29041200607634E-02
 cg2d: Sum(rhs),rhsMax =   1.06641839432525E-03  1.29043698379648E-02
 cg2d: Sum(rhs),rhsMax =   1.06666115595882E-03  1.29046196516886E-02
 cg2d: Sum(rhs),rhsMax =   1.06690402046481E-03  1.29048694921424E-02
 cg2d: Sum(rhs),rhsMax =   1.06714691597906E-03  1.29051193654484E-02
 cg2d: Sum(rhs),rhsMax =   1.06738997251550E-03  1.29053692655644E-02
 cg2d: Sum(rhs),rhsMax =   1.06763296745968E-03  1.29056192023304E-02
 cg2d: Sum(rhs),rhsMax =   1.06787618030024E-03  1.29058691583079E-02
 cg2d: Sum(rhs),rhsMax =   1.06811950077396E-03  1.29061191473789E-02
 cg2d: Sum(rhs),rhsMax =   1.06836294951384E-03  1.29063691601544E-02
 cg2d: Sum(rhs),rhsMax =   1.06860648025894E-03  1.29066192045677E-02
 cg2d: Sum(rhs),rhsMax =   1.06885012186448E-03  1.29068692718766E-02
 cg2d: Sum(rhs),rhsMax =   1.06909380325709E-03  1.29071193684862E-02
 cg2d: Sum(rhs),rhsMax =   1.06933758199138E-03  1.29073694844961E-02
 cg2d: Sum(rhs),rhsMax =   1.06958150759205E-03  1.29076196289374E-02
 cg2d: Sum(rhs),rhsMax =   1.06982539644457E-03  1.29078697967460E-02
 cg2d: Sum(rhs),rhsMax =   1.07006941691578E-03  1.29081199875209E-02
 cg2d: Sum(rhs),rhsMax =   1.07031354350649E-03  1.29083701986871E-02
 cg2d: Sum(rhs),rhsMax =   1.07055777642225E-03  1.29086204372613E-02
 cg2d: Sum(rhs),rhsMax =   1.07080202565048E-03  1.29088706965797E-02
 cg2d: Sum(rhs),rhsMax =   1.07104643394647E-03  1.29091209760055E-02
 cg2d: Sum(rhs),rhsMax =   1.07129084534788E-03  1.29093712729562E-02
 cg2d: Sum(rhs),rhsMax =   1.07153540822674E-03  1.29096215929385E-02
 cg2d: Sum(rhs),rhsMax =   1.07178002980949E-03  1.29098719300442E-02
 cg2d: Sum(rhs),rhsMax =   1.07202471947819E-03  1.29101222885933E-02
 cg2d: Sum(rhs),rhsMax =   1.07226947179911E-03  1.29103726615730E-02
 cg2d: Sum(rhs),rhsMax =   1.07251412792003E-03  1.29106230581438E-02
 cg2d: Sum(rhs),rhsMax =   1.07275898874700E-03  1.29108734637554E-02
 cg2d: Sum(rhs),rhsMax =   1.07300394468156E-03  1.29111238907951E-02
 cg2d: Sum(rhs),rhsMax =   1.07324896180831E-03  1.29113743312607E-02
 cg2d: Sum(rhs),rhsMax =   1.07349398204751E-03  1.29116247889520E-02
 cg2d: Sum(rhs),rhsMax =   1.07373911368601E-03  1.29118752575314E-02
 cg2d: Sum(rhs),rhsMax =   1.07398433702450E-03  1.29121257471476E-02
 cg2d: Sum(rhs),rhsMax =   1.07422962362132E-03  1.29123762443684E-02
 cg2d: Sum(rhs),rhsMax =   1.07447494752136E-03  1.29126267578184E-02
 cg2d: Sum(rhs),rhsMax =   1.07472031125515E-03  1.29128772795623E-02
 cg2d: Sum(rhs),rhsMax =   1.07496575659002E-03  1.29131278167790E-02
 cg2d: Sum(rhs),rhsMax =   1.07521115540486E-03  1.29133783618732E-02
 cg2d: Sum(rhs),rhsMax =   1.07545672994005E-03  1.29136289219839E-02
 cg2d: Sum(rhs),rhsMax =   1.07570220173556E-03  1.29138794905111E-02
 cg2d: Sum(rhs),rhsMax =   1.07594777426555E-03  1.29141300669835E-02
 cg2d: Sum(rhs),rhsMax =   1.07619348050578E-03  1.29143806483172E-02
 cg2d: Sum(rhs),rhsMax =   1.07643906315878E-03  1.29146312445760E-02
 cg2d: Sum(rhs),rhsMax =   1.07668489709593E-03  1.29148818446709E-02
 cg2d: Sum(rhs),rhsMax =   1.07693066075393E-03  1.29151324555913E-02
 cg2d: Sum(rhs),rhsMax =   1.07717652198535E-03  1.29153830671198E-02
 cg2d: Sum(rhs),rhsMax =   1.07742230068868E-03  1.29156336900657E-02
 cg2d: Sum(rhs),rhsMax =   1.07766821486847E-03  1.29158843160168E-02
 cg2d: Sum(rhs),rhsMax =   1.07791419000186E-03  1.29161349493738E-02
 cg2d: Sum(rhs),rhsMax =   1.07816021493689E-03  1.29163855836960E-02
 cg2d: Sum(rhs),rhsMax =   1.07840628286895E-03  1.29166362235118E-02
 cg2d: Sum(rhs),rhsMax =   1.07865235898324E-03  1.29168868606276E-02
 cg2d: Sum(rhs),rhsMax =   1.07889851023813E-03  1.29171375051419E-02
 cg2d: Sum(rhs),rhsMax =   1.07914463892855E-03  1.29173881501566E-02
 cg2d: Sum(rhs),rhsMax =   1.07939082709916E-03  1.29176387985325E-02
 cg2d: Sum(rhs),rhsMax =   1.07963702930212E-03  1.29178894436005E-02
 cg2d: Sum(rhs),rhsMax =   1.07988325731266E-03  1.29181400928945E-02
 cg2d: Sum(rhs),rhsMax =   1.08012951200444E-03  1.29183907396695E-02
 cg2d: Sum(rhs),rhsMax =   1.08037576870591E-03  1.29186413871343E-02
 cg2d: Sum(rhs),rhsMax =   1.08062210065940E-03  1.29188920288705E-02
 cg2d: Sum(rhs),rhsMax =   1.08086835566470E-03  1.29191426711375E-02
 cg2d: Sum(rhs),rhsMax =   1.08111467055933E-03  1.29193933098475E-02
 cg2d: Sum(rhs),rhsMax =   1.08136093223136E-03  1.29196439473385E-02
(PID.TID 0000.0001)      cg2d_init_res =   2.56093539788151E-03
(PID.TID 0000.0001)      cg2d_iters(min,last) =      -1     368
(PID.TID 0000.0001)      cg2d_last_res =   9.36212140740705E-08
(PID.TID 0000.0001) // =======================================================
(PID.TID 0000.0001) // Begin MONITOR dynamic field statistics
(PID.TID 0000.0001) // =======================================================
(PID.TID 0000.0001) %MON time_tsnumber                =                 12672
(PID.TID 0000.0001) %MON time_secondsf                =   1.5206400000000E+07
(PID.TID 0000.0001) %MON dynstat_eta_max              =   1.1761861416755E-01
(PID.TID 0000.0001) %MON dynstat_eta_min              =  -2.9205156320418E-01
(PID.TID 0000.0001) %MON dynstat_eta_mean             =  -6.6500467282477E-08
(PID.TID 0000.0001) %MON dynstat_eta_sd               =   1.0648727524000E-01
(PID.TID 0000.0001) %MON dynstat_eta_del2             =   6.3851179823003E-07
(PID.TID 0000.0001) %MON dynstat_uvel_max             =   1.1160604960472E-01
(PID.TID 0000.0001) %MON dynstat_uvel_min             =  -1.1775523854814E-01
(PID.TID 0000.0001) %MON dynstat_uvel_mean            =   1.2213683561150E-08
(PID.TID 0000.0001) %MON dynstat_uvel_sd              =   4.4223063447819E-02
(PID.TID 0000.0001) %MON dynstat_uvel_del2            =   9.7401096300059E-07
(PID.TID 0000.0001) %MON dynstat_vvel_max             =   1.2606095982159E-01
(PID.TID 0000.0001) %MON dynstat_vvel_min             =  -1.0475590363257E-01
(PID.TID 0000.0001) %MON dynstat_vvel_mean            =  -1.2661907626353E-07
(PID.TID 0000.0001) %MON dynstat_vvel_sd              =   4.1095631505650E-02
(PID.TID 0000.0001) %MON dynstat_vvel_del2            =   1.2314217753655E-06
(PID.TID 0000.0001) %MON dynstat_wvel_max             =   1.1213941517053E-08
(PID.TID 0000.0001) %MON dynstat_wvel_min             =  -9.5937361111282E-09
(PID.TID 0000.0001) %MON dynstat_wvel_mean            =  -2.7073837560985E-21
(PID.TID 0000.0001) %MON dynstat_wvel_sd              =   3.9258463295126E-09
(PID.TID 0000.0001) %MON dynstat_wvel_del2            =   3.9445406785200E-14
(PID.TID 0000.0001) %MON dynstat_theta_max            =   2.0000000000000E+01
(PID.TID 0000.0001) %MON dynstat_theta_min            =   2.0000000000000E+01
(PID.TID 0000.0001) %MON dynstat_theta_mean           =   1.9999999999999E+01
(PID.TID 0000.0001) %MON dynstat_theta_sd             =   1.1972645097557E-12
(PID.TID 0000.0001) %MON dynstat_theta_del2           =   0.0000000000000E+00
(PID.TID 0000.0001) %MON dynstat_salt_max             =   3.0000000000000E+01
(PID.TID 0000.0001) %MON dynstat_salt_min             =   3.0000000000000E+01
(PID.TID 0000.0001) %MON dynstat_salt_mean            =   2.9999999999998E+01
(PID.TID 0000.0001) %MON dynstat_salt_sd              =   2.1529444893531E-12
(PID.TID 0000.0001) %MON dynstat_salt_del2            =   0.0000000000000E+00
(PID.TID 0000.0001) %MON trAdv_CFL_u_max              =   2.8260188070842E-02
(PID.TID 0000.0001) %MON trAdv_CFL_v_max              =   3.0253080290242E-02
(PID.TID 0000.0001) %MON trAdv_CFL_w_max              =   2.8929541984587E-09
(PID.TID 0000.0001) %MON advcfl_uvel_max              =   2.8261257251554E-02
(PID.TID 0000.0001) %MON advcfl_vvel_max              =   3.0254630357181E-02
(PID.TID 0000.0001) %MON advcfl_wvel_max              =   5.3826919281855E-09
(PID.TID 0000.0001) %MON advcfl_W_hf_max              =   0.0000000000000E+00
(PID.TID 0000.0001) %MON pe_b_mean                    =   1.1601902355931E-05
(PID.TID 0000.0001) %MON ke_max                       =   7.9889505593877E-03
(PID.TID 0000.0001) %MON ke_mean                      =   1.8140624259148E-03
(PID.TID 0000.0001) %MON ke_vol                       =   7.2529629296391E+15
(PID.TID 0000.0001) %MON vort_r_min                   =  -4.1099153808538E-06
(PID.TID 0000.0001) %MON vort_r_max                   =   3.1448803217170E-06
(PID.TID 0000.0001) %MON vort_a_mean                  =   1.0615000000000E-04
(PID.TID 0000.0001) %MON vort_a_sd                    =   3.6245712645179E-06
(PID.TID 0000.0001) %MON vort_p_mean                  =   1.1210870169429E-04
(PID.TID 0000.0001) %MON vort_p_sd                    =   2.1065456092417E-05
(PID.TID 0000.0001) %MON surfExpan_theta_mean         =  -5.4519189377496E-20
(PID.TID 0000.0001) %MON surfExpan_salt_mean          =  -8.1845728848818E-20
(PID.TID 0000.0001) // =======================================================
(PID.TID 0000.0001) // End MONITOR dynamic field statistics
(PID.TID 0000.0001) // =======================================================
 cg2d: Sum(rhs),rhsMax =   1.08160722778455E-03  1.29198945753627E-02
 cg2d: Sum(rhs),rhsMax =   1.08185365403653E-03  1.29201452031103E-02
 cg2d: Sum(rhs),rhsMax =   1.08209999407271E-03  1.29203958244288E-02
 cg2d: Sum(rhs),rhsMax =   1.08234643421316E-03  1.29206464407635E-02
 cg2d: Sum(rhs),rhsMax =   1.08259269669776E-03  1.29208970491592E-02
 cg2d: Sum(rhs),rhsMax =   1.08283913494942E-03  1.29211476522614E-02
 cg2d: Sum(rhs),rhsMax =   1.08308547718564E-03  1.29213982464535E-02
 cg2d: Sum(rhs),rhsMax =   1.08333194516602E-03  1.29216488337262E-02
 cg2d: Sum(rhs),rhsMax =   1.08357835274265E-03  1.29218994103138E-02
 cg2d: Sum(rhs),rhsMax =   1.08382482359472E-03  1.29221499808180E-02
 cg2d: Sum(rhs),rhsMax =   1.08407119275677E-03  1.29224005397364E-02
 cg2d: Sum(rhs),rhsMax =   1.08431767013078E-03  1.29226510884550E-02
 cg2d: Sum(rhs),rhsMax =   1.08456402316212E-03  1.29229016243279E-02
 cg2d: Sum(rhs),rhsMax =   1.08481048503087E-03  1.29231521518877E-02
 cg2d: Sum(rhs),rhsMax =   1.08505683454059E-03  1.29234026660844E-02
 cg2d: Sum(rhs),rhsMax =   1.08530324659845E-03  1.29236531672694E-02
 cg2d: Sum(rhs),rhsMax =   1.08554965944084E-03  1.29239036534564E-02
 cg2d: Sum(rhs),rhsMax =   1.08579608922170E-03  1.29241541282615E-02
 cg2d: Sum(rhs),rhsMax =   1.08604239217459E-03  1.29244045877195E-02
 cg2d: Sum(rhs),rhsMax =   1.08628880178285E-03  1.29246550315483E-02
 cg2d: Sum(rhs),rhsMax =   1.08653514187773E-03  1.29249054577870E-02
 cg2d: Sum(rhs),rhsMax =   1.08678154769134E-03  1.29251558715773E-02
 cg2d: Sum(rhs),rhsMax =   1.08702787100119E-03  1.29254062662057E-02
 cg2d: Sum(rhs),rhsMax =   1.08727422738943E-03  1.29256566450189E-02
 cg2d: Sum(rhs),rhsMax =   1.08752048145792E-03  1.29259070038046E-02
 cg2d: Sum(rhs),rhsMax =   1.08776680663956E-03  1.29261573467552E-02
 cg2d: Sum(rhs),rhsMax =   1.08801289259159E-03  1.29264076699830E-02
 cg2d: Sum(rhs),rhsMax =   1.08825908453115E-03  1.29266579729765E-02
 cg2d: Sum(rhs),rhsMax =   1.08850527507935E-03  1.29269082533748E-02
 cg2d: Sum(rhs),rhsMax =   1.08875148739195E-03  1.29271585166253E-02
 cg2d: Sum(rhs),rhsMax =   1.08899765778702E-03  1.29274087564507E-02
 cg2d: Sum(rhs),rhsMax =   1.08924380317293E-03  1.29276589749073E-02
 cg2d: Sum(rhs),rhsMax =   1.08948988360350E-03  1.29279091689119E-02
 cg2d: Sum(rhs),rhsMax =   1.08973584671486E-03  1.29281593429732E-02
 cg2d: Sum(rhs),rhsMax =   1.08998188703936E-03  1.29284094912898E-02
 cg2d: Sum(rhs),rhsMax =   1.09022776140759E-03  1.29286596172210E-02
 cg2d: Sum(rhs),rhsMax =   1.09047373171514E-03  1.29289097141770E-02
 cg2d: Sum(rhs),rhsMax =   1.09071965503678E-03  1.29291597874491E-02
 cg2d: Sum(rhs),rhsMax =   1.09096541890680E-03  1.29294098354546E-02
 cg2d: Sum(rhs),rhsMax =   1.09121124284083E-03  1.29296598552376E-02
 cg2d: Sum(rhs),rhsMax =   1.09145700740798E-03  1.29299098507037E-02
 cg2d: Sum(rhs),rhsMax =   1.09170279997871E-03  1.29301598172445E-02
 cg2d: Sum(rhs),rhsMax =   1.09194851765854E-03  1.29304097549443E-02
 cg2d: Sum(rhs),rhsMax =   1.09219422713506E-03  1.29306596639496E-02
 cg2d: Sum(rhs),rhsMax =   1.09243978060749E-03  1.29309095421367E-02
 cg2d: Sum(rhs),rhsMax =   1.09268531084931E-03  1.29311593918344E-02
 cg2d: Sum(rhs),rhsMax =   1.09293079638988E-03  1.29314092120245E-02
 cg2d: Sum(rhs),rhsMax =   1.09317630805857E-03  1.29316589999487E-02
 cg2d: Sum(rhs),rhsMax =   1.09342174629386E-03  1.29319087535153E-02
 cg2d: Sum(rhs),rhsMax =   1.09366712326897E-03  1.29321584768970E-02
 cg2d: Sum(rhs),rhsMax =   1.09391251100022E-03  1.29324081681639E-02
 cg2d: Sum(rhs),rhsMax =   1.09415778736494E-03  1.29326578268146E-02
 cg2d: Sum(rhs),rhsMax =   1.09440305627201E-03  1.29329074476564E-02
 cg2d: Sum(rhs),rhsMax =   1.09464822731426E-03  1.29331570364161E-02
 cg2d: Sum(rhs),rhsMax =   1.09489339641398E-03  1.29334065886191E-02
 cg2d: Sum(rhs),rhsMax =   1.09513841133631E-03  1.29336561067203E-02
 cg2d: Sum(rhs),rhsMax =   1.09538342679231E-03  1.29339055861897E-02
 cg2d: Sum(rhs),rhsMax =   1.09562818179614E-03  1.29341550294008E-02
 cg2d: Sum(rhs),rhsMax =   1.09587305255467E-03  1.29344044361912E-02
 cg2d: Sum(rhs),rhsMax =   1.09611774349935E-03  1.29346538055864E-02
 cg2d: Sum(rhs),rhsMax =   1.09636244916090E-03  1.29349031343548E-02
 cg2d: Sum(rhs),rhsMax =   1.09660705303458E-03  1.29351524235950E-02
 cg2d: Sum(rhs),rhsMax =   1.09685163314736E-03  1.29354016745618E-02
 cg2d: Sum(rhs),rhsMax =   1.09709618852301E-03  1.29356508862957E-02
 cg2d: Sum(rhs),rhsMax =   1.09734068181478E-03  1.29359000559548E-02
 cg2d: Sum(rhs),rhsMax =   1.09758508405490E-03  1.29361491842460E-02
 cg2d: Sum(rhs),rhsMax =   1.09782937719797E-03  1.29363982682791E-02
 cg2d: Sum(rhs),rhsMax =   1.09807363439504E-03  1.29366473115275E-02
 cg2d: Sum(rhs),rhsMax =   1.09831778104274E-03  1.29368963122675E-02
 cg2d: Sum(rhs),rhsMax =   1.09856189842616E-03  1.29371452682460E-02
 cg2d: Sum(rhs),rhsMax =   1.09880588219882E-03  1.29373941797517E-02
 cg2d: Sum(rhs),rhsMax =   1.09904981883067E-03  1.29376430468067E-02
(PID.TID 0000.0001)      cg2d_init_res =   2.53256066073239E-03
(PID.TID 0000.0001)      cg2d_iters(min,last) =      -1     368
(PID.TID 0000.0001)      cg2d_last_res =   9.21695170546508E-08
(PID.TID 0000.0001) // =======================================================
(PID.TID 0000.0001) // Begin MONITOR dynamic field statistics
(PID.TID 0000.0001) // =======================================================
(PID.TID 0000.0001) %MON time_tsnumber                =                 12744
(PID.TID 0000.0001) %MON time_secondsf                =   1.5292800000000E+07
(PID.TID 0000.0001) %MON dynstat_eta_max              =   1.1770899140045E-01
(PID.TID 0000.0001) %MON dynstat_eta_min              =  -2.9284226870674E-01
(PID.TID 0000.0001) %MON dynstat_eta_mean             =  -6.7682034660677E-08
(PID.TID 0000.0001) %MON dynstat_eta_sd               =   1.0673539134570E-01
(PID.TID 0000.0001) %MON dynstat_eta_del2             =   6.4017173209406E-07
(PID.TID 0000.0001) %MON dynstat_uvel_max             =   1.1198217145445E-01
(PID.TID 0000.0001) %MON dynstat_uvel_min             =  -1.1807490081586E-01
(PID.TID 0000.0001) %MON dynstat_uvel_mean            =  -4.0762719148215E-09
(PID.TID 0000.0001) %MON dynstat_uvel_sd              =   4.4358745505334E-02
(PID.TID 0000.0001) %MON dynstat_uvel_del2            =   9.7714003047401E-07
(PID.TID 0000.0001) %MON dynstat_vvel_max             =   1.2652457304201E-01
(PID.TID 0000.0001) %MON dynstat_vvel_min             =  -1.0504266570335E-01
(PID.TID 0000.0001) %MON dynstat_vvel_mean            =  -1.2555303956617E-07
(PID.TID 0000.0001) %MON dynstat_vvel_sd              =   4.1181472210830E-02
(PID.TID 0000.0001) %MON dynstat_vvel_del2            =   1.2331070066023E-06
(PID.TID 0000.0001) %MON dynstat_wvel_max             =   1.1287190651055E-08
(PID.TID 0000.0001) %MON dynstat_wvel_min             =  -9.7013976244489E-09
(PID.TID 0000.0001) %MON dynstat_wvel_mean            =  -1.5802175782937E-20
(PID.TID 0000.0001) %MON dynstat_wvel_sd              =   3.8979296766287E-09
(PID.TID 0000.0001) %MON dynstat_wvel_del2            =   3.9103183664203E-14
(PID.TID 0000.0001) %MON dynstat_theta_max            =   2.0000000000000E+01
(PID.TID 0000.0001) %MON dynstat_theta_min            =   2.0000000000000E+01
(PID.TID 0000.0001) %MON dynstat_theta_mean           =   1.9999999999999E+01
(PID.TID 0000.0001) %MON dynstat_theta_sd             =   1.1972645097557E-12
(PID.TID 0000.0001) %MON dynstat_theta_del2           =   0.0000000000000E+00
(PID.TID 0000.0001) %MON dynstat_salt_max             =   3.0000000000000E+01
(PID.TID 0000.0001) %MON dynstat_salt_min             =   3.0000000000000E+01
(PID.TID 0000.0001) %MON dynstat_salt_mean            =   2.9999999999998E+01
(PID.TID 0000.0001) %MON dynstat_salt_sd              =   2.1529444893531E-12
(PID.TID 0000.0001) %MON dynstat_salt_del2            =   0.0000000000000E+00
(PID.TID 0000.0001) %MON trAdv_CFL_u_max              =   2.8336914821384E-02
(PID.TID 0000.0001) %MON trAdv_CFL_v_max              =   3.0364356231743E-02
(PID.TID 0000.0001) %MON trAdv_CFL_w_max              =   2.9192253496233E-09
(PID.TID 0000.0001) %MON advcfl_uvel_max              =   2.8337976195807E-02
(PID.TID 0000.0001) %MON advcfl_vvel_max              =   3.0365897530081E-02
(PID.TID 0000.0001) %MON advcfl_wvel_max              =   5.4178515125066E-09
(PID.TID 0000.0001) %MON advcfl_W_hf_max              =   0.0000000000000E+00
(PID.TID 0000.0001) %MON pe_b_mean                    =   1.1656030371243E-05
(PID.TID 0000.0001) %MON ke_max                       =   8.0496599164633E-03
(PID.TID 0000.0001) %MON ke_mean                      =   1.8235603222978E-03
(PID.TID 0000.0001) %MON ke_vol                       =   7.2529629296391E+15
(PID.TID 0000.0001) %MON vort_r_min                   =  -4.1155405638234E-06
(PID.TID 0000.0001) %MON vort_r_max                   =   3.1471066175250E-06
(PID.TID 0000.0001) %MON vort_a_mean                  =   1.0615000000000E-04
(PID.TID 0000.0001) %MON vort_a_sd                    =   3.6248864618075E-06
(PID.TID 0000.0001) %MON vort_p_mean                  =   1.1210870169429E-04
(PID.TID 0000.0001) %MON vort_p_sd                    =   2.1065489012183E-05
(PID.TID 0000.0001) %MON surfExpan_theta_mean         =  -3.1626822634644E-19
(PID.TID 0000.0001) %MON surfExpan_salt_mean          =  -4.7434850753581E-19
(PID.TID 0000.0001) // =======================================================
(PID.TID 0000.0001) // End MONITOR dynamic field statistics
(PID.TID 0000.0001) // =======================================================
 cg2d: Sum(rhs),rhsMax =   1.09929370322602E-03  1.29378918679125E-02
 cg2d: Sum(rhs),rhsMax =   1.09953743891559E-03  1.29381406440539E-02
 cg2d: Sum(rhs),rhsMax =   1.09978107215287E-03  1.29383893719953E-02
 cg2d: Sum(rhs),rhsMax =   1.10002472043308E-03  1.29386380527217E-02
 cg2d: Sum(rhs),rhsMax =   1.10026826504136E-03  1.29388866870671E-02
 cg2d: Sum(rhs),rhsMax =   1.10051172974327E-03  1.29391352740055E-02
 cg2d: Sum(rhs),rhsMax =   1.10075513453201E-03  1.29393838118171E-02
 cg2d: Sum(rhs),rhsMax =   1.10099842396599E-03  1.29396322999756E-02
 cg2d: Sum(rhs),rhsMax =   1.10124162168027E-03  1.29398807375838E-02
 cg2d: Sum(rhs),rhsMax =   1.10148467856055E-03  1.29401291242304E-02
 cg2d: Sum(rhs),rhsMax =   1.10172764072522E-03  1.29403774577903E-02
 cg2d: Sum(rhs),rhsMax =   1.10197058751531E-03  1.29406257432114E-02
 cg2d: Sum(rhs),rhsMax =   1.10221346139744E-03  1.29408739768132E-02
 cg2d: Sum(rhs),rhsMax =   1.10245607784087E-03  1.29411221549678E-02
 cg2d: Sum(rhs),rhsMax =   1.10269869837919E-03  1.29413702803008E-02
 cg2d: Sum(rhs),rhsMax =   1.10294122543529E-03  1.29416183525842E-02
 cg2d: Sum(rhs),rhsMax =   1.10318374581013E-03  1.29418663706731E-02
 cg2d: Sum(rhs),rhsMax =   1.10342594177106E-03  1.29421143339189E-02
 cg2d: Sum(rhs),rhsMax =   1.10366807038158E-03  1.29423622404201E-02
 cg2d: Sum(rhs),rhsMax =   1.10391013362551E-03  1.29426100899937E-02
 cg2d: Sum(rhs),rhsMax =   1.10415218166083E-03  1.29428578858722E-02
 cg2d: Sum(rhs),rhsMax =   1.10439409953557E-03  1.29431056239860E-02
 cg2d: Sum(rhs),rhsMax =   1.10463599517927E-03  1.29433533031884E-02
 cg2d: Sum(rhs),rhsMax =   1.10487774492807E-03  1.29436009234931E-02
 cg2d: Sum(rhs),rhsMax =   1.10511941130552E-03  1.29438484856927E-02
 cg2d: Sum(rhs),rhsMax =   1.10536091331638E-03  1.29440959879191E-02
 cg2d: Sum(rhs),rhsMax =   1.10560237895445E-03  1.29443434310784E-02
 cg2d: Sum(rhs),rhsMax =   1.10584354391512E-03  1.29445908133412E-02
 cg2d: Sum(rhs),rhsMax =   1.10608475981993E-03  1.29448381342900E-02
 cg2d: Sum(rhs),rhsMax =   1.10632581581639E-03  1.29450853934521E-02
 cg2d: Sum(rhs),rhsMax =   1.10656683527315E-03  1.29453325907192E-02
 cg2d: Sum(rhs),rhsMax =   1.10680767332081E-03  1.29455797253368E-02
 cg2d: Sum(rhs),rhsMax =   1.10704831215446E-03  1.29458267951008E-02
 cg2d: Sum(rhs),rhsMax =   1.10728897315348E-03  1.29460738024681E-02
 cg2d: Sum(rhs),rhsMax =   1.10752954768998E-03  1.29463207456707E-02
 cg2d: Sum(rhs),rhsMax =   1.10777001782540E-03  1.29465676226855E-02
 cg2d: Sum(rhs),rhsMax =   1.10801016318468E-03  1.29468144351899E-02
 cg2d: Sum(rhs),rhsMax =   1.10825036422693E-03  1.29470611803277E-02
 cg2d: Sum(rhs),rhsMax =   1.10849042871223E-03  1.29473078605677E-02
 cg2d: Sum(rhs),rhsMax =   1.10873045827923E-03  1.29475544723159E-02
 cg2d: Sum(rhs),rhsMax =   1.10897017907843E-03  1.29478010180434E-02
 cg2d: Sum(rhs),rhsMax =   1.10920989616700E-03  1.29480474935768E-02
 cg2d: Sum(rhs),rhsMax =   1.10944939343157E-03  1.29482939010546E-02
 cg2d: Sum(rhs),rhsMax =   1.10968887827382E-03  1.29485402387952E-02
 cg2d: Sum(rhs),rhsMax =   1.10992822614947E-03  1.29487865077026E-02
 cg2d: Sum(rhs),rhsMax =   1.11016750393720E-03  1.29490327051168E-02
 cg2d: Sum(rhs),rhsMax =   1.11040663215537E-03  1.29492788326786E-02
 cg2d: Sum(rhs),rhsMax =   1.11064553303634E-03  1.29495248883172E-02
 cg2d: Sum(rhs),rhsMax =   1.11088439377342E-03  1.29497708716978E-02
 cg2d: Sum(rhs),rhsMax =   1.11112313720438E-03  1.29500167811360E-02
 cg2d: Sum(rhs),rhsMax =   1.11136179856688E-03  1.29502626187957E-02
 cg2d: Sum(rhs),rhsMax =   1.11159994500650E-03  1.29505083822735E-02
 cg2d: Sum(rhs),rhsMax =   1.11183821513763E-03  1.29507540708561E-02
 cg2d: Sum(rhs),rhsMax =   1.11207642621839E-03  1.29509996871860E-02
 cg2d: Sum(rhs),rhsMax =   1.11231453921245E-03  1.29512452257393E-02
 cg2d: Sum(rhs),rhsMax =   1.11255240425153E-03  1.29514906911060E-02
 cg2d: Sum(rhs),rhsMax =   1.11279018657942E-03  1.29517360758322E-02
 cg2d: Sum(rhs),rhsMax =   1.11302790229851E-03  1.29519813878624E-02
 cg2d: Sum(rhs),rhsMax =   1.11326529896089E-03  1.29522266182689E-02
 cg2d: Sum(rhs),rhsMax =   1.11350274467032E-03  1.29524717748494E-02
 cg2d: Sum(rhs),rhsMax =   1.11373993839690E-03  1.29527168485773E-02
 cg2d: Sum(rhs),rhsMax =   1.11397706956635E-03  1.29529618474332E-02
 cg2d: Sum(rhs),rhsMax =   1.11421399119210E-03  1.29532067628856E-02
 cg2d: Sum(rhs),rhsMax =   1.11445086957814E-03  1.29534516020983E-02
 cg2d: Sum(rhs),rhsMax =   1.11468758986392E-03  1.29536963553314E-02
 cg2d: Sum(rhs),rhsMax =   1.11492418787041E-03  1.29539410331451E-02
 cg2d: Sum(rhs),rhsMax =   1.11516044326009E-03  1.29541856242843E-02
 cg2d: Sum(rhs),rhsMax =   1.11539671043018E-03  1.29544301372537E-02
 cg2d: Sum(rhs),rhsMax =   1.11563281592831E-03  1.29546745628108E-02
 cg2d: Sum(rhs),rhsMax =   1.11586884437508E-03  1.29549189109652E-02
 cg2d: Sum(rhs),rhsMax =   1.11610473347792E-03  1.29551631698392E-02
 cg2d: Sum(rhs),rhsMax =   1.11634044504328E-03  1.29554073485609E-02
(PID.TID 0000.0001)      cg2d_init_res =   2.50826726124086E-03
(PID.TID 0000.0001)      cg2d_iters(min,last) =      -1     368
(PID.TID 0000.0001)      cg2d_last_res =   9.08171626719333E-08
(PID.TID 0000.0001) // =======================================================
(PID.TID 0000.0001) // Begin MONITOR dynamic field statistics
(PID.TID 0000.0001) // =======================================================
(PID.TID 0000.0001) %MON time_tsnumber                =                 12816
(PID.TID 0000.0001) %MON time_secondsf                =   1.5379200000000E+07
(PID.TID 0000.0001) %MON dynstat_eta_max              =   1.1785194060186E-01
(PID.TID 0000.0001) %MON dynstat_eta_min              =  -2.9364031155809E-01
(PID.TID 0000.0001) %MON dynstat_eta_mean             =  -6.8840445461181E-08
(PID.TID 0000.0001) %MON dynstat_eta_sd               =   1.0698341581835E-01
(PID.TID 0000.0001) %MON dynstat_eta_del2             =   6.4186389008444E-07
(PID.TID 0000.0001) %MON dynstat_uvel_max             =   1.1231824010332E-01
(PID.TID 0000.0001) %MON dynstat_uvel_min             =  -1.1839165310896E-01
(PID.TID 0000.0001) %MON dynstat_uvel_mean            =  -1.8611355477933E-08
(PID.TID 0000.0001) %MON dynstat_uvel_sd              =   4.4489951942996E-02
(PID.TID 0000.0001) %MON dynstat_uvel_del2            =   9.8012400645499E-07
(PID.TID 0000.0001) %MON dynstat_vvel_max             =   1.2698596558063E-01
(PID.TID 0000.0001) %MON dynstat_vvel_min             =  -1.0530115001619E-01
(PID.TID 0000.0001) %MON dynstat_vvel_mean            =  -1.2189070537574E-07
(PID.TID 0000.0001) %MON dynstat_vvel_sd              =   4.1271595040367E-02
(PID.TID 0000.0001) %MON dynstat_vvel_del2            =   1.2354642864759E-06
(PID.TID 0000.0001) %MON dynstat_wvel_max             =   1.1310664443299E-08
(PID.TID 0000.0001) %MON dynstat_wvel_min             =  -9.7840550157707E-09
(PID.TID 0000.0001) %MON dynstat_wvel_mean            =  -6.7720798227008E-21
(PID.TID 0000.0001) %MON dynstat_wvel_sd              =   3.8682504857863E-09
(PID.TID 0000.0001) %MON dynstat_wvel_del2            =   3.8779973048768E-14
(PID.TID 0000.0001) %MON dynstat_theta_max            =   2.0000000000000E+01
(PID.TID 0000.0001) %MON dynstat_theta_min            =   2.0000000000000E+01
(PID.TID 0000.0001) %MON dynstat_theta_mean           =   1.9999999999999E+01
(PID.TID 0000.0001) %MON dynstat_theta_sd             =   1.1972645097557E-12
(PID.TID 0000.0001) %MON dynstat_theta_del2           =   0.0000000000000E+00
(PID.TID 0000.0001) %MON dynstat_salt_max             =   3.0000000000000E+01
(PID.TID 0000.0001) %MON dynstat_salt_min             =   3.0000000000000E+01
(PID.TID 0000.0001) %MON dynstat_salt_mean            =   2.9999999999998E+01
(PID.TID 0000.0001) %MON dynstat_salt_sd              =   2.1529444893531E-12
(PID.TID 0000.0001) %MON dynstat_salt_del2            =   0.0000000000000E+00
(PID.TID 0000.0001) %MON trAdv_CFL_u_max              =   2.8412946872702E-02
(PID.TID 0000.0001) %MON trAdv_CFL_v_max              =   3.0475096634306E-02
(PID.TID 0000.0001) %MON trAdv_CFL_w_max              =   2.9261089766197E-09
(PID.TID 0000.0001) %MON advcfl_uvel_max              =   2.8413996746151E-02
(PID.TID 0000.0001) %MON advcfl_vvel_max              =   3.0476631739351E-02
(PID.TID 0000.0001) %MON advcfl_wvel_max              =   5.4291189327836E-09
(PID.TID 0000.0001) %MON advcfl_W_hf_max              =   0.0000000000000E+00
(PID.TID 0000.0001) %MON pe_b_mean                    =   1.1710264298383E-05
(PID.TID 0000.0001) %MON ke_max                       =   8.1103217182576E-03
(PID.TID 0000.0001) %MON ke_mean                      =   1.8330615725692E-03
(PID.TID 0000.0001) %MON ke_vol                       =   7.2529629296391E+15
(PID.TID 0000.0001) %MON vort_r_min                   =  -4.1211344556048E-06
(PID.TID 0000.0001) %MON vort_r_max                   =   3.1522276140608E-06
(PID.TID 0000.0001) %MON vort_a_mean                  =   1.0615000000000E-04
(PID.TID 0000.0001) %MON vort_a_sd                    =   3.6252076588469E-06
(PID.TID 0000.0001) %MON vort_p_mean                  =   1.1210870169429E-04
(PID.TID 0000.0001) %MON vort_p_sd                    =   2.1065528474538E-05
(PID.TID 0000.0001) %MON surfExpan_theta_mean         =  -1.3563782480908E-19
(PID.TID 0000.0001) %MON surfExpan_salt_mean          =  -2.0348795995211E-19
(PID.TID 0000.0001) // =======================================================
(PID.TID 0000.0001) // End MONITOR dynamic field statistics
(PID.TID 0000.0001) // =======================================================
 cg2d: Sum(rhs),rhsMax =   1.11657595719289E-03  1.29556514363019E-02
 cg2d: Sum(rhs),rhsMax =   1.11681132910101E-03  1.29558954449744E-02
 cg2d: Sum(rhs),rhsMax =   1.11704661370237E-03  1.29561393630504E-02
 cg2d: Sum(rhs),rhsMax =   1.11728167346184E-03  1.29563831995408E-02
 cg2d: Sum(rhs),rhsMax =   1.11751667002429E-03  1.29566269437701E-02
 cg2d: Sum(rhs),rhsMax =   1.11775139756869E-03  1.29568706039875E-02
 cg2d: Sum(rhs),rhsMax =   1.11798608324245E-03  1.29571141731474E-02
 cg2d: Sum(rhs),rhsMax =   1.11822051613480E-03  1.29573576567369E-02
 cg2d: Sum(rhs),rhsMax =   1.11845489883689E-03  1.29576010484359E-02
 cg2d: Sum(rhs),rhsMax =   1.11868899130587E-03  1.29578443540202E-02
 cg2d: Sum(rhs),rhsMax =   1.11892302545743E-03  1.29580875653626E-02
 cg2d: Sum(rhs),rhsMax =   1.11915695058416E-03  1.29583306899825E-02
 cg2d: Sum(rhs),rhsMax =   1.11939061912660E-03  1.29585737184860E-02
 cg2d: Sum(rhs),rhsMax =   1.11962419358971E-03  1.29588166594386E-02
 cg2d: Sum(rhs),rhsMax =   1.11985750217321E-03  1.29590595046039E-02
 cg2d: Sum(rhs),rhsMax =   1.12009077805115E-03  1.29593022603155E-02
 cg2d: Sum(rhs),rhsMax =   1.12032381426509E-03  1.29595449182260E-02
 cg2d: Sum(rhs),rhsMax =   1.12055679791676E-03  1.29597874881041E-02
 cg2d: Sum(rhs),rhsMax =   1.12078955307943E-03  1.29600299586652E-02
 cg2d: Sum(rhs),rhsMax =   1.12102219399540E-03  1.29602723380850E-02
 cg2d: Sum(rhs),rhsMax =   1.12125448797050E-03  1.29605146177831E-02
 cg2d: Sum(rhs),rhsMax =   1.12148677495644E-03  1.29607568067416E-02
 cg2d: Sum(rhs),rhsMax =   1.12171886631700E-03  1.29609988934380E-02
 cg2d: Sum(rhs),rhsMax =   1.12195080382260E-03  1.29612408888690E-02
 cg2d: Sum(rhs),rhsMax =   1.12218259141483E-03  1.29614827812271E-02
 cg2d: Sum(rhs),rhsMax =   1.12241424349274E-03  1.29617245806364E-02
 cg2d: Sum(rhs),rhsMax =   1.12264560541204E-03  1.29619662777493E-02
 cg2d: Sum(rhs),rhsMax =   1.12287686549998E-03  1.29622078797278E-02
 cg2d: Sum(rhs),rhsMax =   1.12310793551914E-03  1.29624493779252E-02
 cg2d: Sum(rhs),rhsMax =   1.12333887482556E-03  1.29626907802044E-02
 cg2d: Sum(rhs),rhsMax =   1.12356959649466E-03  1.29629320773495E-02
 cg2d: Sum(rhs),rhsMax =   1.12380020040485E-03  1.29631732779458E-02
 cg2d: Sum(rhs),rhsMax =   1.12403058802418E-03  1.29634143727933E-02
 cg2d: Sum(rhs),rhsMax =   1.12426085961534E-03  1.29636553702550E-02
 cg2d: Sum(rhs),rhsMax =   1.12449093657807E-03  1.29638962592740E-02
 cg2d: Sum(rhs),rhsMax =   1.12472085400795E-03  1.29641370517190E-02
 cg2d: Sum(rhs),rhsMax =   1.12495052854966E-03  1.29643777348502E-02
 cg2d: Sum(rhs),rhsMax =   1.12518010504162E-03  1.29646183191175E-02
 cg2d: Sum(rhs),rhsMax =   1.12540941038172E-03  1.29648587918799E-02
 cg2d: Sum(rhs),rhsMax =   1.12563861740141E-03  1.29650991684116E-02
 cg2d: Sum(rhs),rhsMax =   1.12586763205234E-03  1.29653394305806E-02
 cg2d: Sum(rhs),rhsMax =   1.12609648209901E-03  1.29655795942190E-02
 cg2d: Sum(rhs),rhsMax =   1.12632508902789E-03  1.29658196422910E-02
 cg2d: Sum(rhs),rhsMax =   1.12663422339790E-03  1.29660595709484E-02
 cg2d: Sum(rhs),rhsMax =   1.12694307593403E-03  1.29662994062531E-02
 cg2d: Sum(rhs),rhsMax =   1.12725160121368E-03  1.29665391413405E-02
 cg2d: Sum(rhs),rhsMax =   1.12755991830384E-03  1.29667787583364E-02
 cg2d: Sum(rhs),rhsMax =   1.12786790520084E-03  1.29670182767488E-02
 cg2d: Sum(rhs),rhsMax =   1.12817561697571E-03  1.29672576761584E-02
 cg2d: Sum(rhs),rhsMax =   1.12848300799773E-03  1.29674969738726E-02
 cg2d: Sum(rhs),rhsMax =   1.12879007255616E-03  1.29677361524364E-02
 cg2d: Sum(rhs),rhsMax =   1.12909668351420E-03  1.29679752261512E-02
 cg2d: Sum(rhs),rhsMax =   1.12940314301808E-03  1.29682141826544E-02
 cg2d: Sum(rhs),rhsMax =   1.12970928844550E-03  1.29684530364662E-02
 cg2d: Sum(rhs),rhsMax =   1.13001511976686E-03  1.29686917665464E-02
 cg2d: Sum(rhs),rhsMax =   1.13032067067617E-03  1.29689303929336E-02
 cg2d: Sum(rhs),rhsMax =   1.13062588625164E-03  1.29691688961745E-02
 cg2d: Sum(rhs),rhsMax =   1.13093082513682E-03  1.29694072955867E-02
 cg2d: Sum(rhs),rhsMax =   1.13123543989351E-03  1.29696455709417E-02
 cg2d: Sum(rhs),rhsMax =   1.13153972029223E-03  1.29698837401641E-02
 cg2d: Sum(rhs),rhsMax =   1.13184368278975E-03  1.29701217846830E-02
 cg2d: Sum(rhs),rhsMax =   1.13214733267255E-03  1.29703597231156E-02
 cg2d: Sum(rhs),rhsMax =   1.13245069367007E-03  1.29705975360373E-02
 cg2d: Sum(rhs),rhsMax =   1.13275369400466E-03  1.29708352396330E-02
 cg2d: Sum(rhs),rhsMax =   1.13305641397881E-03  1.29710728182947E-02
 cg2d: Sum(rhs),rhsMax =   1.13335869579602E-03  1.29713102880679E-02
 cg2d: Sum(rhs),rhsMax =   1.13366078791726E-03  1.29715476292252E-02
 cg2d: Sum(rhs),rhsMax =   1.13396249244079E-03  1.29717848610335E-02
 cg2d: Sum(rhs),rhsMax =   1.13426394189524E-03  1.29720219632156E-02
 cg2d: Sum(rhs),rhsMax =   1.13456499418467E-03  1.29722589551312E-02
 cg2d: Sum(rhs),rhsMax =   1.13486579142122E-03  1.29724958179682E-02
 cg2d: Sum(rhs),rhsMax =   1.13516614237828E-03  1.29727325687254E-02
(PID.TID 0000.0001)      cg2d_init_res =   2.48870633184262E-03
(PID.TID 0000.0001)      cg2d_iters(min,last) =      -1     366
(PID.TID 0000.0001)      cg2d_last_res =   9.89895937298838E-08
(PID.TID 0000.0001) // =======================================================
(PID.TID 0000.0001) // Begin MONITOR dynamic field statistics
(PID.TID 0000.0001) // =======================================================
(PID.TID 0000.0001) %MON time_tsnumber                =                 12888
(PID.TID 0000.0001) %MON time_secondsf                =   1.5465600000000E+07
(PID.TID 0000.0001) %MON dynstat_eta_max              =   1.1805010410048E-01
(PID.TID 0000.0001) %MON dynstat_eta_min              =  -2.9444590905070E-01
(PID.TID 0000.0001) %MON dynstat_eta_mean             =  -7.0098667852327E-08
(PID.TID 0000.0001) %MON dynstat_eta_sd               =   1.0723089874878E-01
(PID.TID 0000.0001) %MON dynstat_eta_del2             =   6.4358531033642E-07
(PID.TID 0000.0001) %MON dynstat_uvel_max             =   1.1261367760498E-01
(PID.TID 0000.0001) %MON dynstat_uvel_min             =  -1.1870442994587E-01
(PID.TID 0000.0001) %MON dynstat_uvel_mean            =  -3.0826885196990E-08
(PID.TID 0000.0001) %MON dynstat_uvel_sd              =   4.4615795483622E-02
(PID.TID 0000.0001) %MON dynstat_uvel_del2            =   9.8294501468952E-07
(PID.TID 0000.0001) %MON dynstat_vvel_max             =   1.2744579421499E-01
(PID.TID 0000.0001) %MON dynstat_vvel_min             =  -1.0553653220268E-01
(PID.TID 0000.0001) %MON dynstat_vvel_mean            =  -1.1598201787020E-07
(PID.TID 0000.0001) %MON dynstat_vvel_sd              =   4.1366886988808E-02
(PID.TID 0000.0001) %MON dynstat_vvel_del2            =   1.2384323536898E-06
(PID.TID 0000.0001) %MON dynstat_wvel_max             =   1.1231133248657E-08
(PID.TID 0000.0001) %MON dynstat_wvel_min             =  -9.8403370374581E-09
(PID.TID 0000.0001) %MON dynstat_wvel_mean            =   1.4702819025577E-21
(PID.TID 0000.0001) %MON dynstat_wvel_sd              =   3.8343538874998E-09
(PID.TID 0000.0001) %MON dynstat_wvel_del2            =   3.8692017426476E-14
(PID.TID 0000.0001) %MON dynstat_theta_max            =   2.0000000000000E+01
(PID.TID 0000.0001) %MON dynstat_theta_min            =   2.0000000000000E+01
(PID.TID 0000.0001) %MON dynstat_theta_mean           =   1.9999999999999E+01
(PID.TID 0000.0001) %MON dynstat_theta_sd             =   1.1972645097557E-12
(PID.TID 0000.0001) %MON dynstat_theta_del2           =   0.0000000000000E+00
(PID.TID 0000.0001) %MON dynstat_salt_max             =   3.0000000000000E+01
(PID.TID 0000.0001) %MON dynstat_salt_min             =   3.0000000000000E+01
(PID.TID 0000.0001) %MON dynstat_salt_mean            =   2.9999999999998E+01
(PID.TID 0000.0001) %MON dynstat_salt_sd              =   2.1529444893531E-12
(PID.TID 0000.0001) %MON dynstat_salt_del2            =   0.0000000000000E+00
(PID.TID 0000.0001) %MON trAdv_CFL_u_max              =   2.8488028210670E-02
(PID.TID 0000.0001) %MON trAdv_CFL_v_max              =   3.0585459899907E-02
(PID.TID 0000.0001) %MON trAdv_CFL_w_max              =   2.9046531588476E-09
(PID.TID 0000.0001) %MON advcfl_uvel_max              =   2.8489063187008E-02
(PID.TID 0000.0001) %MON advcfl_vvel_max              =   3.0586990611598E-02
(PID.TID 0000.0001) %MON advcfl_wvel_max              =   5.3909439593554E-09
(PID.TID 0000.0001) %MON advcfl_W_hf_max              =   0.0000000000000E+00
(PID.TID 0000.0001) %MON pe_b_mean                    =   1.1764505276844E-05
(PID.TID 0000.0001) %MON ke_max                       =   8.1710131303185E-03
(PID.TID 0000.0001) %MON ke_mean                      =   1.8425626933795E-03
(PID.TID 0000.0001) %MON ke_vol                       =   7.2529629296391E+15
(PID.TID 0000.0001) %MON vort_r_min                   =  -4.1266282381569E-06
(PID.TID 0000.0001) %MON vort_r_max                   =   3.1600920071806E-06
(PID.TID 0000.0001) %MON vort_a_mean                  =   1.0615000000000E-04
(PID.TID 0000.0001) %MON vort_a_sd                    =   3.6255340142164E-06
(PID.TID 0000.0001) %MON vort_p_mean                  =   1.1210870169429E-04
(PID.TID 0000.0001) %MON vort_p_sd                    =   2.1065575379482E-05
(PID.TID 0000.0001) %MON surfExpan_theta_mean         =   2.9070976132894E-20
(PID.TID 0000.0001) %MON surfExpan_salt_mean          =   4.3586278379536E-20
(PID.TID 0000.0001) // =======================================================
(PID.TID 0000.0001) // End MONITOR dynamic field statistics
(PID.TID 0000.0001) // =======================================================
 cg2d: Sum(rhs),rhsMax =   1.13546625373962E-03  1.29729691896758E-02
 cg2d: Sum(rhs),rhsMax =   1.13576600177059E-03  1.29732056970009E-02
 cg2d: Sum(rhs),rhsMax =   1.13606548908585E-03  1.29734420733210E-02
 cg2d: Sum(rhs),rhsMax =   1.13636450332456E-03  1.29736783351016E-02
 cg2d: Sum(rhs),rhsMax =   1.13666329003781E-03  1.29739144668268E-02
 cg2d: Sum(rhs),rhsMax =   1.13696172153914E-03  1.29741504833517E-02
 cg2d: Sum(rhs),rhsMax =   1.13725987335011E-03  1.29743863656701E-02
 cg2d: Sum(rhs),rhsMax =   1.13755743178877E-03  1.29746221313332E-02
 cg2d: Sum(rhs),rhsMax =   1.13785482678682E-03  1.29748577652551E-02
 cg2d: Sum(rhs),rhsMax =   1.13815187992548E-03  1.29750932811332E-02
 cg2d: Sum(rhs),rhsMax =   1.13844860433527E-03  1.29753286640451E-02
 cg2d: Sum(rhs),rhsMax =   1.13874495893358E-03  1.29755639265359E-02
 cg2d: Sum(rhs),rhsMax =   1.13904104197060E-03  1.29757990555310E-02
 cg2d: Sum(rhs),rhsMax =   1.13933667074858E-03  1.29760340622336E-02
 cg2d: Sum(rhs),rhsMax =   1.13963202724756E-03  1.29762689359247E-02
 cg2d: Sum(rhs),rhsMax =   1.13992699489658E-03  1.29765036874279E-02
 cg2d: Sum(rhs),rhsMax =   1.14022159782026E-03  1.29767383042350E-02
 cg2d: Sum(rhs),rhsMax =   1.14051588682503E-03  1.29769727946446E-02
 cg2d: Sum(rhs),rhsMax =   1.14080986582894E-03  1.29772071545905E-02
 cg2d: Sum(rhs),rhsMax =   1.14110345324458E-03  1.29774413851447E-02
 cg2d: Sum(rhs),rhsMax =   1.14139671652189E-03  1.29776754836162E-02
 cg2d: Sum(rhs),rhsMax =   1.14168957021065E-03  1.29779094517277E-02
 cg2d: Sum(rhs),rhsMax =   1.14198210813830E-03  1.29781432871503E-02
 cg2d: Sum(rhs),rhsMax =   1.14227419954258E-03  1.29783769921837E-02
 cg2d: Sum(rhs),rhsMax =   1.14256604217917E-03  1.29786105636903E-02
 cg2d: Sum(rhs),rhsMax =   1.14285747095691E-03  1.29788440018887E-02
 cg2d: Sum(rhs),rhsMax =   1.14314856609479E-03  1.29790773070637E-02
 cg2d: Sum(rhs),rhsMax =   1.14343930501851E-03  1.29793104777288E-02
 cg2d: Sum(rhs),rhsMax =   1.14372957709187E-03  1.29795435130507E-02
 cg2d: Sum(rhs),rhsMax =   1.14401957374135E-03  1.29797764179787E-02
 cg2d: Sum(rhs),rhsMax =   1.14430922708522E-03  1.29800091806152E-02
 cg2d: Sum(rhs),rhsMax =   1.14459847373802E-03  1.29802418153917E-02
 cg2d: Sum(rhs),rhsMax =   1.14488733803706E-03  1.29804743080516E-02
 cg2d: Sum(rhs),rhsMax =   1.14517582041960E-03  1.29807066669130E-02
 cg2d: Sum(rhs),rhsMax =   1.14546397386215E-03  1.29809388853775E-02
 cg2d: Sum(rhs),rhsMax =   1.14575152435121E-03  1.29811709703043E-02
 cg2d: Sum(rhs),rhsMax =   1.14603890587475E-03  1.29814029139078E-02
 cg2d: Sum(rhs),rhsMax =   1.14632589791231E-03  1.29816347223184E-02
 cg2d: Sum(rhs),rhsMax =   1.14661252316055E-03  1.29818663880642E-02
 cg2d: Sum(rhs),rhsMax =   1.14689880668407E-03  1.29820979180869E-02
 cg2d: Sum(rhs),rhsMax =   1.14718466014488E-03  1.29823293046586E-02
 cg2d: Sum(rhs),rhsMax =   1.14747018575279E-03  1.29825605551202E-02
 cg2d: Sum(rhs),rhsMax =   1.14775528897434E-03  1.29827916606411E-02
 cg2d: Sum(rhs),rhsMax =   1.14804001710092E-03  1.29830226287049E-02
 cg2d: Sum(rhs),rhsMax =   1.14832427448007E-03  1.29832534507997E-02
 cg2d: Sum(rhs),rhsMax =   1.14860824289066E-03  1.29834841362786E-02
 cg2d: Sum(rhs),rhsMax =   1.14889170161816E-03  1.29837146758572E-02
 cg2d: Sum(rhs),rhsMax =   1.14917485380518E-03  1.29839450743468E-02
 cg2d: Sum(rhs),rhsMax =   1.14945761212615E-03  1.29841753261279E-02
 cg2d: Sum(rhs),rhsMax =   1.14973998596477E-03  1.29844054376318E-02
 cg2d: Sum(rhs),rhsMax =   1.15002195376398E-03  1.29846354022850E-02
 cg2d: Sum(rhs),rhsMax =   1.15030353937935E-03  1.29848652248787E-02
 cg2d: Sum(rhs),rhsMax =   1.15058472391003E-03  1.29850949003641E-02
 cg2d: Sum(rhs),rhsMax =   1.15086553191558E-03  1.29853244320807E-02
 cg2d: Sum(rhs),rhsMax =   1.15114590964892E-03  1.29855538161452E-02
 cg2d: Sum(rhs),rhsMax =   1.15142585221715E-03  1.29857830575806E-02
 cg2d: Sum(rhs),rhsMax =   1.15170543444167E-03  1.29860121443701E-02
 cg2d: Sum(rhs),rhsMax =   1.15198466179715E-03  1.29862410918063E-02
 cg2d: Sum(rhs),rhsMax =   1.15226336537266E-03  1.29864698844078E-02
 cg2d: Sum(rhs),rhsMax =   1.15254172051419E-03  1.29866985373056E-02
 cg2d: Sum(rhs),rhsMax =   1.15281967726422E-03  1.29869270336369E-02
 cg2d: Sum(rhs),rhsMax =   1.15309725799749E-03  1.29871553881664E-02
 cg2d: Sum(rhs),rhsMax =   1.15337431928112E-03  1.29873835869869E-02
 cg2d: Sum(rhs),rhsMax =   1.15365102276831E-03  1.29876116431413E-02
 cg2d: Sum(rhs),rhsMax =   1.15392730427828E-03  1.29878395393171E-02
 cg2d: Sum(rhs),rhsMax =   1.15420317236321E-03  1.29880672938003E-02
 cg2d: Sum(rhs),rhsMax =   1.15447863254577E-03  1.29882948901173E-02
 cg2d: Sum(rhs),rhsMax =   1.15475369098261E-03  1.29885223429762E-02
 cg2d: Sum(rhs),rhsMax =   1.15502830941968E-03  1.29887496360985E-02
 cg2d: Sum(rhs),rhsMax =   1.15530253215233E-03  1.29889767840536E-02
 cg2d: Sum(rhs),rhsMax =   1.15557627677856E-03  1.29892037712861E-02
 cg2d: Sum(rhs),rhsMax =   1.15584963445438E-03  1.29894306136378E-02
(PID.TID 0000.0001)      cg2d_init_res =   2.47378443854681E-03
(PID.TID 0000.0001)      cg2d_iters(min,last) =      -1     366
(PID.TID 0000.0001)      cg2d_last_res =   9.59156228638112E-08
(PID.TID 0000.0001) // =======================================================
(PID.TID 0000.0001) // Begin MONITOR dynamic field statistics
(PID.TID 0000.0001) // =======================================================
(PID.TID 0000.0001) %MON time_tsnumber                =                 12960
(PID.TID 0000.0001) %MON time_secondsf                =   1.5552000000000E+07
(PID.TID 0000.0001) %MON dynstat_eta_max              =   1.1830378366450E-01
(PID.TID 0000.0001) %MON dynstat_eta_min              =  -2.9526070171853E-01
(PID.TID 0000.0001) %MON dynstat_eta_mean             =  -7.1465703813792E-08
(PID.TID 0000.0001) %MON dynstat_eta_sd               =   1.0747735709046E-01
(PID.TID 0000.0001) %MON dynstat_eta_del2             =   6.4533178580377E-07
(PID.TID 0000.0001) %MON dynstat_uvel_max             =   1.1286944338281E-01
(PID.TID 0000.0001) %MON dynstat_uvel_min             =  -1.1901226936873E-01
(PID.TID 0000.0001) %MON dynstat_uvel_mean            =  -4.0298022125102E-08
(PID.TID 0000.0001) %MON dynstat_uvel_sd              =   4.4735620664345E-02
(PID.TID 0000.0001) %MON dynstat_uvel_del2            =   9.8559482606292E-07
(PID.TID 0000.0001) %MON dynstat_vvel_max             =   1.2790447309267E-01
(PID.TID 0000.0001) %MON dynstat_vvel_min             =  -1.0575442748969E-01
(PID.TID 0000.0001) %MON dynstat_vvel_mean            =  -1.0825927667956E-07
(PID.TID 0000.0001) %MON dynstat_vvel_sd              =   4.1467941160961E-02
(PID.TID 0000.0001) %MON dynstat_vvel_del2            =   1.2419285069036E-06
(PID.TID 0000.0001) %MON dynstat_wvel_max             =   1.1053180992603E-08
(PID.TID 0000.0001) %MON dynstat_wvel_min             =  -9.8665738222189E-09
(PID.TID 0000.0001) %MON dynstat_wvel_mean            =   1.6978073751780E-20
(PID.TID 0000.0001) %MON dynstat_wvel_sd              =   3.7945146944333E-09
(PID.TID 0000.0001) %MON dynstat_wvel_del2            =   3.8423151905432E-14
(PID.TID 0000.0001) %MON dynstat_theta_max            =   2.0000000000000E+01
(PID.TID 0000.0001) %MON dynstat_theta_min            =   2.0000000000000E+01
(PID.TID 0000.0001) %MON dynstat_theta_mean           =   1.9999999999999E+01
(PID.TID 0000.0001) %MON dynstat_theta_sd             =   1.1972645097557E-12
(PID.TID 0000.0001) %MON dynstat_theta_del2           =   0.0000000000000E+00
(PID.TID 0000.0001) %MON dynstat_salt_max             =   3.0000000000000E+01
(PID.TID 0000.0001) %MON dynstat_salt_min             =   3.0000000000000E+01
(PID.TID 0000.0001) %MON dynstat_salt_mean            =   2.9999999999998E+01
(PID.TID 0000.0001) %MON dynstat_salt_sd              =   2.1529444893531E-12
(PID.TID 0000.0001) %MON dynstat_salt_del2            =   0.0000000000000E+00
(PID.TID 0000.0001) %MON trAdv_CFL_u_max              =   2.8561927578860E-02
(PID.TID 0000.0001) %MON trAdv_CFL_v_max              =   3.0695546256151E-02
(PID.TID 0000.0001) %MON trAdv_CFL_w_max              =   2.8541451095130E-09
(PID.TID 0000.0001) %MON advcfl_uvel_max              =   2.8562944648494E-02
(PID.TID 0000.0001) %MON advcfl_vvel_max              =   3.0697073542241E-02
(PID.TID 0000.0001) %MON advcfl_wvel_max              =   5.3055268764496E-09
(PID.TID 0000.0001) %MON advcfl_W_hf_max              =   0.0000000000000E+00
(PID.TID 0000.0001) %MON pe_b_mean                    =   1.1818646248140E-05
(PID.TID 0000.0001) %MON ke_max                       =   8.2317936628394E-03
(PID.TID 0000.0001) %MON ke_mean                      =   1.8520584334483E-03
(PID.TID 0000.0001) %MON ke_vol                       =   7.2529629296391E+15
(PID.TID 0000.0001) %MON vort_r_min                   =  -4.1319572828980E-06
(PID.TID 0000.0001) %MON vort_r_max                   =   3.1704507623559E-06
(PID.TID 0000.0001) %MON vort_a_mean                  =   1.0615000000000E-04
(PID.TID 0000.0001) %MON vort_a_sd                    =   3.6258645256953E-06
(PID.TID 0000.0001) %MON vort_p_mean                  =   1.1210870169429E-04
(PID.TID 0000.0001) %MON vort_p_sd                    =   2.1065630251170E-05
(PID.TID 0000.0001) %MON surfExpan_theta_mean         =   3.3947778145181E-19
(PID.TID 0000.0001) %MON surfExpan_salt_mean          =   5.0919570203220E-19
(PID.TID 0000.0001) // =======================================================
(PID.TID 0000.0001) // End MONITOR dynamic field statistics
(PID.TID 0000.0001) // =======================================================
 cg2d: Sum(rhs),rhsMax =   1.15612244713847E-03  1.29896572950635E-02
 cg2d: Sum(rhs),rhsMax =   1.15639490852749E-03  1.29898838284286E-02
 cg2d: Sum(rhs),rhsMax =   1.15666696387953E-03  1.29901101995703E-02
 cg2d: Sum(rhs),rhsMax =   1.15693860342086E-03  1.29903364256545E-02
 cg2d: Sum(rhs),rhsMax =   1.15720982756179E-03  1.29905624888574E-02
 cg2d: Sum(rhs),rhsMax =   1.15748060638457E-03  1.29907884042641E-02
 cg2d: Sum(rhs),rhsMax =   1.15775093821320E-03  1.29910141544339E-02
 cg2d: Sum(rhs),rhsMax =   1.15802088445436E-03  1.29912397564294E-02
 cg2d: Sum(rhs),rhsMax =   1.15829036812395E-03  1.29914651930954E-02
 cg2d: Sum(rhs),rhsMax =   1.15855940811645E-03  1.29916904811125E-02
 cg2d: Sum(rhs),rhsMax =   1.15882780168997E-03  1.29919156029775E-02
 cg2d: Sum(rhs),rhsMax =   1.15909595358062E-03  1.29921405754758E-02
 cg2d: Sum(rhs),rhsMax =   1.15936362741965E-03  1.29923653807851E-02
 cg2d: Sum(rhs),rhsMax =   1.15963079217704E-03  1.29925900354541E-02
 cg2d: Sum(rhs),rhsMax =   1.15989759456960E-03  1.29928145215579E-02
 cg2d: Sum(rhs),rhsMax =   1.16016393265676E-03  1.29930388572902E-02
 cg2d: Sum(rhs),rhsMax =   1.16042990405395E-03  1.29932630243359E-02
 cg2d: Sum(rhs),rhsMax =   1.16069534865307E-03  1.29934870396170E-02
 cg2d: Sum(rhs),rhsMax =   1.16096038564748E-03  1.29937108858234E-02
 cg2d: Sum(rhs),rhsMax =   1.16122491051399E-03  1.29939345811854E-02
 cg2d: Sum(rhs),rhsMax =   1.16148905276029E-03  1.29941581025564E-02
 cg2d: Sum(rhs),rhsMax =   1.16175272350159E-03  1.29943814721790E-02
 cg2d: Sum(rhs),rhsMax =   1.16201593735167E-03  1.29946046691896E-02
 cg2d: Sum(rhs),rhsMax =   1.16227871459486E-03  1.29948277132527E-02
 cg2d: Sum(rhs),rhsMax =   1.16254095598218E-03  1.29950505850181E-02
 cg2d: Sum(rhs),rhsMax =   1.16280278868608E-03  1.29952733019708E-02
 cg2d: Sum(rhs),rhsMax =   1.16306406080262E-03  1.29954958470362E-02
 cg2d: Sum(rhs),rhsMax =   1.16332493659454E-03  1.29957182352712E-02
 cg2d: Sum(rhs),rhsMax =   1.16358537073341E-03  1.29959404489864E-02
 cg2d: Sum(rhs),rhsMax =   1.16384535505349E-03  1.29961625064150E-02
 cg2d: Sum(rhs),rhsMax =   1.16410490581257E-03  1.29963843918301E-02
 cg2d: Sum(rhs),rhsMax =   1.16436389827053E-03  1.29966061179883E-02
 cg2d: Sum(rhs),rhsMax =   1.16462245258987E-03  1.29968276699888E-02
 cg2d: Sum(rhs),rhsMax =   1.16488054804802E-03  1.29970490618923E-02
 cg2d: Sum(rhs),rhsMax =   1.16513807412571E-03  1.29972702822191E-02
 cg2d: Sum(rhs),rhsMax =   1.16539521966727E-03  1.29974913396304E-02
 cg2d: Sum(rhs),rhsMax =   1.16565182349285E-03  1.29977122234613E-02
 cg2d: Sum(rhs),rhsMax =   1.16590803009660E-03  1.29979329448772E-02
 cg2d: Sum(rhs),rhsMax =   1.16616374714274E-03  1.29981534916646E-02
 cg2d: Sum(rhs),rhsMax =   1.16641900414627E-03  1.29983738749512E-02
 cg2d: Sum(rhs),rhsMax =   1.16667374450508E-03  1.29985940832573E-02
 cg2d: Sum(rhs),rhsMax =   1.16692806565580E-03  1.29988141268901E-02
 cg2d: Sum(rhs),rhsMax =   1.16718180020810E-03  1.29990339953319E-02
 cg2d: Sum(rhs),rhsMax =   1.16743511679963E-03  1.29992536982820E-02
 cg2d: Sum(rhs),rhsMax =   1.16768789996283E-03  1.29994732250708E-02
 cg2d: Sum(rhs),rhsMax =   1.16794023802721E-03  1.29996925855024E-02
 cg2d: Sum(rhs),rhsMax =   1.16819205794034E-03  1.29999117691663E-02
 cg2d: Sum(rhs),rhsMax =   1.16844344250832E-03  1.30001307865412E-02
 cg2d: Sum(rhs),rhsMax =   1.16869431924286E-03  1.30003496261859E-02
 cg2d: Sum(rhs),rhsMax =   1.16894472086975E-03  1.30005682979221E-02
 cg2d: Sum(rhs),rhsMax =   1.16919457040601E-03  1.30007867917516E-02
 cg2d: Sum(rhs),rhsMax =   1.16944396351763E-03  1.30010051171272E-02
 cg2d: Sum(rhs),rhsMax =   1.16969271453041E-03  1.30012232640422E-02
 cg2d: Sum(rhs),rhsMax =   1.16994110130055E-03  1.30014412394365E-02
 cg2d: Sum(rhs),rhsMax =   1.17018901935735E-03  1.30016590365348E-02
 cg2d: Sum(rhs),rhsMax =   1.17043630854616E-03  1.30018766634761E-02
 cg2d: Sum(rhs),rhsMax =   1.17068318325945E-03  1.30020941122952E-02
 cg2d: Sum(rhs),rhsMax =   1.17092955593489E-03  1.30023113862965E-02
 cg2d: Sum(rhs),rhsMax =   1.17117549929706E-03  1.30025284830876E-02
 cg2d: Sum(rhs),rhsMax =   1.17142084669629E-03  1.30027454050121E-02
 cg2d: Sum(rhs),rhsMax =   1.17166576637275E-03  1.30029621491065E-02
 cg2d: Sum(rhs),rhsMax =   1.17191017022761E-03  1.30031787179246E-02
 cg2d: Sum(rhs),rhsMax =   1.17215411956462E-03  1.30033951068725E-02
 cg2d: Sum(rhs),rhsMax =   1.17239744979003E-03  1.30036113199313E-02
 cg2d: Sum(rhs),rhsMax =   1.17264033604849E-03  1.30038273537043E-02
 cg2d: Sum(rhs),rhsMax =   1.17288267270495E-03  1.30040432107434E-02
 cg2d: Sum(rhs),rhsMax =   1.17312457186885E-03  1.30042588853573E-02
 cg2d: Sum(rhs),rhsMax =   1.17336594195793E-03  1.30044743840418E-02
 cg2d: Sum(rhs),rhsMax =   1.17360680166988E-03  1.30046897003086E-02
 cg2d: Sum(rhs),rhsMax =   1.17384713741981E-03  1.30049048392150E-02
 cg2d: Sum(rhs),rhsMax =   1.17408699655366E-03  1.30051197938799E-02
 cg2d: Sum(rhs),rhsMax =   1.17432610694508E-03  1.30053345719508E-02
(PID.TID 0000.0001)      cg2d_init_res =   2.46269527561692E-03
(PID.TID 0000.0001)      cg2d_iters(min,last) =      -1     366
(PID.TID 0000.0001)      cg2d_last_res =   9.12533390677992E-08
(PID.TID 0000.0001) // =======================================================
(PID.TID 0000.0001) // Begin MONITOR dynamic field statistics
(PID.TID 0000.0001) // =======================================================
(PID.TID 0000.0001) %MON time_tsnumber                =                 13032
(PID.TID 0000.0001) %MON time_secondsf                =   1.5638400000000E+07
(PID.TID 0000.0001) %MON dynstat_eta_max              =   1.1861104164695E-01
(PID.TID 0000.0001) %MON dynstat_eta_min              =  -2.9607944450603E-01
(PID.TID 0000.0001) %MON dynstat_eta_mean             =  -7.2694551104655E-08
(PID.TID 0000.0001) %MON dynstat_eta_sd               =   1.0772229740065E-01
(PID.TID 0000.0001) %MON dynstat_eta_del2             =   6.4709810208880E-07
(PID.TID 0000.0001) %MON dynstat_uvel_max             =   1.1308801262756E-01
(PID.TID 0000.0001) %MON dynstat_uvel_min             =  -1.1931433574234E-01
(PID.TID 0000.0001) %MON dynstat_uvel_mean            =  -4.6754197000637E-08
(PID.TID 0000.0001) %MON dynstat_uvel_sd              =   4.4849030700003E-02
(PID.TID 0000.0001) %MON dynstat_uvel_del2            =   9.8807456163388E-07
(PID.TID 0000.0001) %MON dynstat_vvel_max             =   1.2836216511420E-01
(PID.TID 0000.0001) %MON dynstat_vvel_min             =  -1.0596064278053E-01
(PID.TID 0000.0001) %MON dynstat_vvel_mean            =  -9.9211713986018E-08
(PID.TID 0000.0001) %MON dynstat_vvel_sd              =   4.1575035293855E-02
(PID.TID 0000.0001) %MON dynstat_vvel_del2            =   1.2458525433829E-06
(PID.TID 0000.0001) %MON dynstat_wvel_max             =   1.0783895575441E-08
(PID.TID 0000.0001) %MON dynstat_wvel_min             =  -9.8720401513856E-09
(PID.TID 0000.0001) %MON dynstat_wvel_mean            =  -5.8739551704600E-21
(PID.TID 0000.0001) %MON dynstat_wvel_sd              =   3.7480054033990E-09
(PID.TID 0000.0001) %MON dynstat_wvel_del2            =   3.8176444770248E-14
(PID.TID 0000.0001) %MON dynstat_theta_max            =   2.0000000000000E+01
(PID.TID 0000.0001) %MON dynstat_theta_min            =   2.0000000000000E+01
(PID.TID 0000.0001) %MON dynstat_theta_mean           =   1.9999999999999E+01
(PID.TID 0000.0001) %MON dynstat_theta_sd             =   1.1972645097557E-12
(PID.TID 0000.0001) %MON dynstat_theta_del2           =   0.0000000000000E+00
(PID.TID 0000.0001) %MON dynstat_salt_max             =   3.0000000000000E+01
(PID.TID 0000.0001) %MON dynstat_salt_min             =   3.0000000000000E+01
(PID.TID 0000.0001) %MON dynstat_salt_mean            =   2.9999999999998E+01
(PID.TID 0000.0001) %MON dynstat_salt_sd              =   2.1529444893531E-12
(PID.TID 0000.0001) %MON dynstat_salt_del2            =   0.0000000000000E+00
(PID.TID 0000.0001) %MON trAdv_CFL_u_max              =   2.8634443974057E-02
(PID.TID 0000.0001) %MON trAdv_CFL_v_max              =   3.0805395632794E-02
(PID.TID 0000.0001) %MON trAdv_CFL_w_max              =   2.7800834835749E-09
(PID.TID 0000.0001) %MON advcfl_uvel_max              =   2.8635440578162E-02
(PID.TID 0000.0001) %MON advcfl_vvel_max              =   3.0806919627408E-02
(PID.TID 0000.0001) %MON advcfl_wvel_max              =   5.1762698762119E-09
(PID.TID 0000.0001) %MON advcfl_W_hf_max              =   0.0000000000000E+00
(PID.TID 0000.0001) %MON pe_b_mean                    =   1.1872576892600E-05
(PID.TID 0000.0001) %MON ke_max                       =   8.2926895302258E-03
(PID.TID 0000.0001) %MON ke_mean                      =   1.8615421575948E-03
(PID.TID 0000.0001) %MON ke_vol                       =   7.2529629296391E+15
(PID.TID 0000.0001) %MON vort_r_min                   =  -4.1370630693795E-06
(PID.TID 0000.0001) %MON vort_r_max                   =   3.1829717554513E-06
(PID.TID 0000.0001) %MON vort_a_mean                  =   1.0615000000000E-04
(PID.TID 0000.0001) %MON vort_a_sd                    =   3.6261980798027E-06
(PID.TID 0000.0001) %MON vort_p_mean                  =   1.1210870169429E-04
(PID.TID 0000.0001) %MON vort_p_sd                    =   2.1065693232112E-05
(PID.TID 0000.0001) %MON surfExpan_theta_mean         =  -1.1755841502629E-19
(PID.TID 0000.0001) %MON surfExpan_salt_mean          =  -1.7633367742808E-19
(PID.TID 0000.0001) // =======================================================
(PID.TID 0000.0001) // End MONITOR dynamic field statistics
(PID.TID 0000.0001) // =======================================================
 cg2d: Sum(rhs),rhsMax =   1.17456489635863E-03  1.30055491663380E-02
 cg2d: Sum(rhs),rhsMax =   1.17480314233163E-03  1.30057635833299E-02
 cg2d: Sum(rhs),rhsMax =   1.17504089342816E-03  1.30059778155534E-02
 cg2d: Sum(rhs),rhsMax =   1.17527814880081E-03  1.30061918664578E-02
 cg2d: Sum(rhs),rhsMax =   1.17551494505684E-03  1.30064057337280E-02
 cg2d: Sum(rhs),rhsMax =   1.17575122706457E-03  1.30066194206835E-02
 cg2d: Sum(rhs),rhsMax =   1.17598697678778E-03  1.30068329223910E-02
 cg2d: Sum(rhs),rhsMax =   1.17622219673676E-03  1.30070462426383E-02
 cg2d: Sum(rhs),rhsMax =   1.17645693287805E-03  1.30072593775358E-02
 cg2d: Sum(rhs),rhsMax =   1.17669115551584E-03  1.30074723313043E-02
 cg2d: Sum(rhs),rhsMax =   1.17692487742858E-03  1.30076850976184E-02
 cg2d: Sum(rhs),rhsMax =   1.17715804147666E-03  1.30078976810818E-02
 cg2d: Sum(rhs),rhsMax =   1.17739076469074E-03  1.30081100777714E-02
 cg2d: Sum(rhs),rhsMax =   1.17762282663777E-03  1.30083222903279E-02
 cg2d: Sum(rhs),rhsMax =   1.17785440245632E-03  1.30085343157577E-02
 cg2d: Sum(rhs),rhsMax =   1.17808551629998E-03  1.30087461566480E-02
 cg2d: Sum(rhs),rhsMax =   1.17831613498223E-03  1.30089578107239E-02
 cg2d: Sum(rhs),rhsMax =   1.17854625765391E-03  1.30091692782133E-02
 cg2d: Sum(rhs),rhsMax =   1.17877577786594E-03  1.30093805602281E-02
 cg2d: Sum(rhs),rhsMax =   1.17900487654722E-03  1.30095916516926E-02
 cg2d: Sum(rhs),rhsMax =   1.17923336465314E-03  1.30098025576806E-02
 cg2d: Sum(rhs),rhsMax =   1.17946140794818E-03  1.30100132736114E-02
 cg2d: Sum(rhs),rhsMax =   1.17968896881785E-03  1.30102238032737E-02
 cg2d: Sum(rhs),rhsMax =   1.17991597884434E-03  1.30104341444688E-02
 cg2d: Sum(rhs),rhsMax =   1.18014250523401E-03  1.30106442963971E-02
 cg2d: Sum(rhs),rhsMax =   1.18036854114592E-03  1.30108542574909E-02
 cg2d: Sum(rhs),rhsMax =   1.18059409114266E-03  1.30110640313423E-02
 cg2d: Sum(rhs),rhsMax =   1.18081911944420E-03  1.30112736137932E-02
 cg2d: Sum(rhs),rhsMax =   1.18104361652801E-03  1.30114830075432E-02
 cg2d: Sum(rhs),rhsMax =   1.18126765134201E-03  1.30116922089747E-02
 cg2d: Sum(rhs),rhsMax =   1.18149103621032E-03  1.30119012218397E-02
 cg2d: Sum(rhs),rhsMax =   1.18171401576166E-03  1.30121100405610E-02
 cg2d: Sum(rhs),rhsMax =   1.18193649195537E-03  1.30123186716534E-02
 cg2d: Sum(rhs),rhsMax =   1.18215847763928E-03  1.30125271061872E-02
 cg2d: Sum(rhs),rhsMax =   1.18237993040196E-03  1.30127353524656E-02
 cg2d: Sum(rhs),rhsMax =   1.18260093827211E-03  1.30129434026590E-02
 cg2d: Sum(rhs),rhsMax =   1.18282137123549E-03  1.30131512658618E-02
 cg2d: Sum(rhs),rhsMax =   1.18304137456495E-03  1.30133589297928E-02
 cg2d: Sum(rhs),rhsMax =   1.18326088438691E-03  1.30135664053511E-02
 cg2d: Sum(rhs),rhsMax =   1.18350821768094E-03  1.30137736878822E-02
 cg2d: Sum(rhs),rhsMax =   1.18375503036364E-03  1.30139807759904E-02
 cg2d: Sum(rhs),rhsMax =   1.18400132388287E-03  1.30141876666557E-02
 cg2d: Sum(rhs),rhsMax =   1.18424704845882E-03  1.30143943638222E-02
 cg2d: Sum(rhs),rhsMax =   1.18449214975509E-03  1.30146008662361E-02
 cg2d: Sum(rhs),rhsMax =   1.18473675760492E-03  1.30148071724312E-02
 cg2d: Sum(rhs),rhsMax =   1.18498064694847E-03  1.30150132793272E-02
 cg2d: Sum(rhs),rhsMax =   1.18522409585391E-03  1.30152191975230E-02
 cg2d: Sum(rhs),rhsMax =   1.18546697151470E-03  1.30154249214941E-02
 cg2d: Sum(rhs),rhsMax =   1.18570931967005E-03  1.30156304442429E-02
 cg2d: Sum(rhs),rhsMax =   1.18595108525784E-03  1.30158357722643E-02
 cg2d: Sum(rhs),rhsMax =   1.18619231691759E-03  1.30160409018096E-02
 cg2d: Sum(rhs),rhsMax =   1.18643298508264E-03  1.30162458366223E-02
 cg2d: Sum(rhs),rhsMax =   1.18667309067770E-03  1.30164505698675E-02
 cg2d: Sum(rhs),rhsMax =   1.18691262428242E-03  1.30166551078261E-02
 cg2d: Sum(rhs),rhsMax =   1.18715162457959E-03  1.30168594463652E-02
 cg2d: Sum(rhs),rhsMax =   1.18739016672770E-03  1.30170635887849E-02
 cg2d: Sum(rhs),rhsMax =   1.18762812797650E-03  1.30172675296023E-02
 cg2d: Sum(rhs),rhsMax =   1.18786560731447E-03  1.30174712741959E-02
 cg2d: Sum(rhs),rhsMax =   1.18810253341835E-03  1.30176748194149E-02
 cg2d: Sum(rhs),rhsMax =   1.18833876078030E-03  1.30178781682478E-02
 cg2d: Sum(rhs),rhsMax =   1.18857466682328E-03  1.30180813131413E-02
 cg2d: Sum(rhs),rhsMax =   1.18880999031706E-03  1.30182842622283E-02
 cg2d: Sum(rhs),rhsMax =   1.18904490103625E-03  1.30184870060567E-02
 cg2d: Sum(rhs),rhsMax =   1.18927927444597E-03  1.30186895529702E-02
 cg2d: Sum(rhs),rhsMax =   1.18951317902018E-03  1.30188918955071E-02
 cg2d: Sum(rhs),rhsMax =   1.18974655815287E-03  1.30190940390178E-02
 cg2d: Sum(rhs),rhsMax =   1.18997934557116E-03  1.30192959785308E-02
 cg2d: Sum(rhs),rhsMax =   1.19021177685680E-03  1.30194977209900E-02
 cg2d: Sum(rhs),rhsMax =   1.19044367846125E-03  1.30196992564311E-02
 cg2d: Sum(rhs),rhsMax =   1.19067518292950E-03  1.30199005940965E-02
 cg2d: Sum(rhs),rhsMax =   1.19090614487924E-03  1.30201017248272E-02
 cg2d: Sum(rhs),rhsMax =   1.19113665878828E-03  1.30203026578987E-02
(PID.TID 0000.0001)      cg2d_init_res =   2.45407943486532E-03
(PID.TID 0000.0001)      cg2d_iters(min,last) =      -1     365
(PID.TID 0000.0001)      cg2d_last_res =   9.67364024205095E-08
(PID.TID 0000.0001) // =======================================================
(PID.TID 0000.0001) // Begin MONITOR dynamic field statistics
(PID.TID 0000.0001) // =======================================================
(PID.TID 0000.0001) %MON time_tsnumber                =                 13104
(PID.TID 0000.0001) %MON time_secondsf                =   1.5724800000000E+07
(PID.TID 0000.0001) %MON dynstat_eta_max              =   1.1896789039990E-01
(PID.TID 0000.0001) %MON dynstat_eta_min              =  -2.9690043174696E-01
(PID.TID 0000.0001) %MON dynstat_eta_mean             =  -7.3819208689670E-08
(PID.TID 0000.0001) %MON dynstat_eta_sd               =   1.0796523847965E-01
(PID.TID 0000.0001) %MON dynstat_eta_del2             =   6.4887828669966E-07
(PID.TID 0000.0001) %MON dynstat_uvel_max             =   1.1327496597207E-01
(PID.TID 0000.0001) %MON dynstat_uvel_min             =  -1.1961360598615E-01
(PID.TID 0000.0001) %MON dynstat_uvel_mean            =  -5.0085708630048E-08
(PID.TID 0000.0001) %MON dynstat_uvel_sd              =   4.4955901920197E-02
(PID.TID 0000.0001) %MON dynstat_uvel_del2            =   9.9039372829968E-07
(PID.TID 0000.0001) %MON dynstat_vvel_max             =   1.2882597418326E-01
(PID.TID 0000.0001) %MON dynstat_vvel_min             =  -1.0616093161136E-01
(PID.TID 0000.0001) %MON dynstat_vvel_mean            =  -8.9359049958381E-08
(PID.TID 0000.0001) %MON dynstat_vvel_sd              =   4.1688125537254E-02
(PID.TID 0000.0001) %MON dynstat_vvel_del2            =   1.2500913443962E-06
(PID.TID 0000.0001) %MON dynstat_wvel_max             =   1.0465843086131E-08
(PID.TID 0000.0001) %MON dynstat_wvel_min             =  -9.8520639492199E-09
(PID.TID 0000.0001) %MON dynstat_wvel_mean            =  -6.1893427850165E-21
(PID.TID 0000.0001) %MON dynstat_wvel_sd              =   3.6952092642814E-09
(PID.TID 0000.0001) %MON dynstat_wvel_del2            =   3.8290772164679E-14
(PID.TID 0000.0001) %MON dynstat_theta_max            =   2.0000000000000E+01
(PID.TID 0000.0001) %MON dynstat_theta_min            =   2.0000000000000E+01
(PID.TID 0000.0001) %MON dynstat_theta_mean           =   1.9999999999999E+01
(PID.TID 0000.0001) %MON dynstat_theta_sd             =   1.1972645097557E-12
(PID.TID 0000.0001) %MON dynstat_theta_del2           =   0.0000000000000E+00
(PID.TID 0000.0001) %MON dynstat_salt_max             =   3.0000000000000E+01
(PID.TID 0000.0001) %MON dynstat_salt_min             =   3.0000000000000E+01
(PID.TID 0000.0001) %MON dynstat_salt_mean            =   2.9999999999998E+01
(PID.TID 0000.0001) %MON dynstat_salt_sd              =   2.1529444893531E-12
(PID.TID 0000.0001) %MON dynstat_salt_del2            =   0.0000000000000E+00
(PID.TID 0000.0001) %MON trAdv_CFL_u_max              =   2.8706267589301E-02
(PID.TID 0000.0001) %MON trAdv_CFL_v_max              =   3.0916674949284E-02
(PID.TID 0000.0001) %MON trAdv_CFL_w_max              =   2.6903107897279E-09
(PID.TID 0000.0001) %MON advcfl_uvel_max              =   2.8707265436677E-02
(PID.TID 0000.0001) %MON advcfl_vvel_max              =   3.0918233803983E-02
(PID.TID 0000.0001) %MON advcfl_wvel_max              =   5.0236046813428E-09
(PID.TID 0000.0001) %MON advcfl_W_hf_max              =   0.0000000000000E+00
(PID.TID 0000.0001) %MON pe_b_mean                    =   1.1926188617665E-05
(PID.TID 0000.0001) %MON ke_max                       =   8.3536923986886E-03
(PID.TID 0000.0001) %MON ke_mean                      =   1.8710062703145E-03
(PID.TID 0000.0001) %MON ke_vol                       =   7.2529629296391E+15
(PID.TID 0000.0001) %MON vort_r_min                   =  -4.1418946949302E-06
(PID.TID 0000.0001) %MON vort_r_max                   =   3.1972616351886E-06
(PID.TID 0000.0001) %MON vort_a_mean                  =   1.0615000000000E-04
(PID.TID 0000.0001) %MON vort_a_sd                    =   3.6265334990141E-06
(PID.TID 0000.0001) %MON vort_p_mean                  =   1.1210870169429E-04
(PID.TID 0000.0001) %MON vort_p_sd                    =   2.1065764094117E-05
(PID.TID 0000.0001) %MON surfExpan_theta_mean         =  -1.2387690538454E-19
(PID.TID 0000.0001) %MON surfExpan_salt_mean          =  -1.8586112136861E-19
(PID.TID 0000.0001) // =======================================================
(PID.TID 0000.0001) // End MONITOR dynamic field statistics
(PID.TID 0000.0001) // =======================================================
 cg2d: Sum(rhs),rhsMax =   1.19136671919736E-03  1.30205033845456E-02
 cg2d: Sum(rhs),rhsMax =   1.19159633534949E-03  1.30207039095099E-02
 cg2d: Sum(rhs),rhsMax =   1.19182544052266E-03  1.30209042275021E-02
 cg2d: Sum(rhs),rhsMax =   1.19205414969816E-03  1.30211043472335E-02
 cg2d: Sum(rhs),rhsMax =   1.19228241251135E-03  1.30213042575668E-02
 cg2d: Sum(rhs),rhsMax =   1.19251023045358E-03  1.30215039675435E-02
 cg2d: Sum(rhs),rhsMax =   1.19273763916162E-03  1.30217034692453E-02
 cg2d: Sum(rhs),rhsMax =   1.19296462709599E-03  1.30219027697097E-02
 cg2d: Sum(rhs),rhsMax =   1.19319109776781E-03  1.30221018619264E-02
 cg2d: Sum(rhs),rhsMax =   1.19341726206118E-03  1.30223007522011E-02
 cg2d: Sum(rhs),rhsMax =   1.19364300279866E-03  1.30224994325732E-02
 cg2d: Sum(rhs),rhsMax =   1.19386837120506E-03  1.30226979120528E-02
 cg2d: Sum(rhs),rhsMax =   1.19409326992554E-03  1.30228961804975E-02
 cg2d: Sum(rhs),rhsMax =   1.19431786867869E-03  1.30230942440472E-02
 cg2d: Sum(rhs),rhsMax =   1.19454205727309E-03  1.30232920989936E-02
 cg2d: Sum(rhs),rhsMax =   1.19476588246801E-03  1.30234897520212E-02
 cg2d: Sum(rhs),rhsMax =   1.19505339926139E-03  1.30236872123214E-02
 cg2d: Sum(rhs),rhsMax =   1.19534042101864E-03  1.30238844504912E-02
 cg2d: Sum(rhs),rhsMax =   1.19562679450352E-03  1.30240814764967E-02
 cg2d: Sum(rhs),rhsMax =   1.19591276640858E-03  1.30242782986587E-02
 cg2d: Sum(rhs),rhsMax =   1.19619824313827E-03  1.30244749076269E-02
 cg2d: Sum(rhs),rhsMax =   1.19648320760013E-03  1.30246713138711E-02
 cg2d: Sum(rhs),rhsMax =   1.19676765822656E-03  1.30248675079352E-02
 cg2d: Sum(rhs),rhsMax =   1.19705168126093E-03  1.30250634939511E-02
 cg2d: Sum(rhs),rhsMax =   1.19733524780681E-03  1.30252592683095E-02
 cg2d: Sum(rhs),rhsMax =   1.19761836037676E-03  1.30254548386292E-02
 cg2d: Sum(rhs),rhsMax =   1.19790102981005E-03  1.30256501954278E-02
 cg2d: Sum(rhs),rhsMax =   1.19818327435285E-03  1.30258453443052E-02
 cg2d: Sum(rhs),rhsMax =   1.19846504035066E-03  1.30260402773669E-02
 cg2d: Sum(rhs),rhsMax =   1.19874643376725E-03  1.30262350080618E-02
 cg2d: Sum(rhs),rhsMax =   1.19902742320028E-03  1.30264295235917E-02
 cg2d: Sum(rhs),rhsMax =   1.19930802356271E-03  1.30266238313094E-02
 cg2d: Sum(rhs),rhsMax =   1.19958820874871E-03  1.30268179225296E-02
 cg2d: Sum(rhs),rhsMax =   1.19986802991561E-03  1.30270118092585E-02
 cg2d: Sum(rhs),rhsMax =   1.20014743840280E-03  1.30272054815245E-02
 cg2d: Sum(rhs),rhsMax =   1.20042652252018E-03  1.30273989432514E-02
 cg2d: Sum(rhs),rhsMax =   1.20070529476198E-03  1.30275921882795E-02
 cg2d: Sum(rhs),rhsMax =   1.20098370957274E-03  1.30277852262594E-02
 cg2d: Sum(rhs),rhsMax =   1.20126182159985E-03  1.30279780487946E-02
 cg2d: Sum(rhs),rhsMax =   1.20153958688355E-03  1.30281706609315E-02
 cg2d: Sum(rhs),rhsMax =   1.20181687683543E-03  1.30283630560338E-02
 cg2d: Sum(rhs),rhsMax =   1.20209404888734E-03  1.30285552454919E-02
 cg2d: Sum(rhs),rhsMax =   1.20237087475989E-03  1.30287472152834E-02
 cg2d: Sum(rhs),rhsMax =   1.20264748911585E-03  1.30289389744022E-02
 cg2d: Sum(rhs),rhsMax =   1.20292381260130E-03  1.30291305147715E-02
 cg2d: Sum(rhs),rhsMax =   1.20319987434222E-03  1.30293218466657E-02
 cg2d: Sum(rhs),rhsMax =   1.20347568735217E-03  1.30295129617849E-02
 cg2d: Sum(rhs),rhsMax =   1.20375122819166E-03  1.30297038674508E-02
 cg2d: Sum(rhs),rhsMax =   1.20402654211211E-03  1.30298945517107E-02
 cg2d: Sum(rhs),rhsMax =   1.20430169496539E-03  1.30300850247378E-02
 cg2d: Sum(rhs),rhsMax =   1.20457659765211E-03  1.30302752800919E-02
 cg2d: Sum(rhs),rhsMax =   1.20485124595301E-03  1.30304653251819E-02
 cg2d: Sum(rhs),rhsMax =   1.20512571968120E-03  1.30306551468346E-02
 cg2d: Sum(rhs),rhsMax =   1.20540006039367E-03  1.30308447583804E-02
 cg2d: Sum(rhs),rhsMax =   1.20567419926051E-03  1.30310341517257E-02
 cg2d: Sum(rhs),rhsMax =   1.20594817849725E-03  1.30312233326685E-02
 cg2d: Sum(rhs),rhsMax =   1.20622202027842E-03  1.30314122912807E-02
 cg2d: Sum(rhs),rhsMax =   1.20649569967884E-03  1.30316010383647E-02
 cg2d: Sum(rhs),rhsMax =   1.20676919974800E-03  1.30317895674965E-02
 cg2d: Sum(rhs),rhsMax =   1.20704261797092E-03  1.30319778812689E-02
 cg2d: Sum(rhs),rhsMax =   1.20731590441788E-03  1.30321659724004E-02
 cg2d: Sum(rhs),rhsMax =   1.20758908823581E-03  1.30323538510103E-02
 cg2d: Sum(rhs),rhsMax =   1.20786217851575E-03  1.30325415101970E-02
 cg2d: Sum(rhs),rhsMax =   1.20813513567774E-03  1.30327289546677E-02
 cg2d: Sum(rhs),rhsMax =   1.20840802947553E-03  1.30329161748605E-02
 cg2d: Sum(rhs),rhsMax =   1.20868082887674E-03  1.30331031819845E-02
 cg2d: Sum(rhs),rhsMax =   1.20895357047314E-03  1.30332899687766E-02
 cg2d: Sum(rhs),rhsMax =   1.20922625441904E-03  1.30334765401053E-02
 cg2d: Sum(rhs),rhsMax =   1.20949888649463E-03  1.30336628864417E-02
 cg2d: Sum(rhs),rhsMax =   1.20977140074429E-03  1.30338490182892E-02
 cg2d: Sum(rhs),rhsMax =   1.21004395495045E-03  1.30340349300502E-02
 cg2d: Sum(rhs),rhsMax =   1.21031646188597E-03  1.30342206250402E-02
(PID.TID 0000.0001)      cg2d_init_res =   2.44627420720355E-03
(PID.TID 0000.0001)      cg2d_iters(min,last) =      -1     363
(PID.TID 0000.0001)      cg2d_last_res =   9.82242395116769E-08
(PID.TID 0000.0001) // =======================================================
(PID.TID 0000.0001) // Begin MONITOR dynamic field statistics
(PID.TID 0000.0001) // =======================================================
(PID.TID 0000.0001) %MON time_tsnumber                =                 13176
(PID.TID 0000.0001) %MON time_secondsf                =   1.5811200000000E+07
(PID.TID 0000.0001) %MON dynstat_eta_max              =   1.1936855926542E-01
(PID.TID 0000.0001) %MON dynstat_eta_min              =  -2.9772182862396E-01
(PID.TID 0000.0001) %MON dynstat_eta_mean             =  -7.5090343983515E-08
(PID.TID 0000.0001) %MON dynstat_eta_sd               =   1.0820573297279E-01
(PID.TID 0000.0001) %MON dynstat_eta_del2             =   6.5066585861962E-07
(PID.TID 0000.0001) %MON dynstat_uvel_max             =   1.1343624490969E-01
(PID.TID 0000.0001) %MON dynstat_uvel_min             =  -1.1990937369257E-01
(PID.TID 0000.0001) %MON dynstat_uvel_mean            =  -5.0342365485238E-08
(PID.TID 0000.0001) %MON dynstat_uvel_sd              =   4.5056385140997E-02
(PID.TID 0000.0001) %MON dynstat_uvel_del2            =   9.9256874189981E-07
(PID.TID 0000.0001) %MON dynstat_vvel_max             =   1.2929288902173E-01
(PID.TID 0000.0001) %MON dynstat_vvel_min             =  -1.0636076267035E-01
(PID.TID 0000.0001) %MON dynstat_vvel_mean            =  -7.9224444896826E-08
(PID.TID 0000.0001) %MON dynstat_vvel_sd              =   4.1806855867485E-02
(PID.TID 0000.0001) %MON dynstat_vvel_del2            =   1.2545238845523E-06
(PID.TID 0000.0001) %MON dynstat_wvel_max             =   1.0143411434256E-08
(PID.TID 0000.0001) %MON dynstat_wvel_min             =  -9.8087803169619E-09
(PID.TID 0000.0001) %MON dynstat_wvel_mean            =   3.5012751489231E-21
(PID.TID 0000.0001) %MON dynstat_wvel_sd              =   3.6375701190954E-09
(PID.TID 0000.0001) %MON dynstat_wvel_del2            =   3.8310886465543E-14
(PID.TID 0000.0001) %MON dynstat_theta_max            =   2.0000000000000E+01
(PID.TID 0000.0001) %MON dynstat_theta_min            =   2.0000000000000E+01
(PID.TID 0000.0001) %MON dynstat_theta_mean           =   1.9999999999999E+01
(PID.TID 0000.0001) %MON dynstat_theta_sd             =   1.1972645097557E-12
(PID.TID 0000.0001) %MON dynstat_theta_del2           =   0.0000000000000E+00
(PID.TID 0000.0001) %MON dynstat_salt_max             =   3.0000000000000E+01
(PID.TID 0000.0001) %MON dynstat_salt_min             =   3.0000000000000E+01
(PID.TID 0000.0001) %MON dynstat_salt_mean            =   2.9999999999998E+01
(PID.TID 0000.0001) %MON dynstat_salt_sd              =   2.1529444893531E-12
(PID.TID 0000.0001) %MON dynstat_salt_del2            =   0.0000000000000E+00
(PID.TID 0000.0001) %MON trAdv_CFL_u_max              =   2.8777275639999E-02
(PID.TID 0000.0001) %MON trAdv_CFL_v_max              =   3.1028739659106E-02
(PID.TID 0000.0001) %MON trAdv_CFL_w_max              =   2.5978546909368E-09
(PID.TID 0000.0001) %MON advcfl_uvel_max              =   2.8778249686216E-02
(PID.TID 0000.0001) %MON advcfl_vvel_max              =   3.1030293365216E-02
(PID.TID 0000.0001) %MON advcfl_wvel_max              =   4.8688374884427E-09
(PID.TID 0000.0001) %MON advcfl_W_hf_max              =   0.0000000000000E+00
(PID.TID 0000.0001) %MON pe_b_mean                    =   1.1979379388901E-05
(PID.TID 0000.0001) %MON ke_max                       =   8.4147603784898E-03
(PID.TID 0000.0001) %MON ke_mean                      =   1.8804426570921E-03
(PID.TID 0000.0001) %MON ke_vol                       =   7.2529629296391E+15
(PID.TID 0000.0001) %MON vort_r_min                   =  -4.1464099265655E-06
(PID.TID 0000.0001) %MON vort_r_max                   =   3.2130000294399E-06
(PID.TID 0000.0001) %MON vort_a_mean                  =   1.0615000000000E-04
(PID.TID 0000.0001) %MON vort_a_sd                    =   3.6268695860163E-06
(PID.TID 0000.0001) %MON vort_p_mean                  =   1.1210870169429E-04
(PID.TID 0000.0001) %MON vort_p_sd                    =   2.1065842265463E-05
(PID.TID 0000.0001) %MON surfExpan_theta_mean         =   6.9873962008194E-20
(PID.TID 0000.0001) %MON surfExpan_salt_mean          =   1.0482093729441E-19
(PID.TID 0000.0001) // =======================================================
(PID.TID 0000.0001) // End MONITOR dynamic field statistics
(PID.TID 0000.0001) // =======================================================
 cg2d: Sum(rhs),rhsMax =   1.21058894394157E-03  1.30344060949587E-02
 cg2d: Sum(rhs),rhsMax =   1.21086139169535E-03  1.30345913495612E-02
 cg2d: Sum(rhs),rhsMax =   1.21113383027375E-03  1.30347763812095E-02
 cg2d: Sum(rhs),rhsMax =   1.21140615229836E-03  1.30349611981297E-02
 cg2d: Sum(rhs),rhsMax =   1.21167860132239E-03  1.30351457872865E-02
 cg2d: Sum(rhs),rhsMax =   1.21195106763619E-03  1.30353301598763E-02
 cg2d: Sum(rhs),rhsMax =   1.21222354261038E-03  1.30355143101581E-02
 cg2d: Sum(rhs),rhsMax =   1.21249605469418E-03  1.30356982420800E-02
 cg2d: Sum(rhs),rhsMax =   1.21276861452319E-03  1.30358819502509E-02
 cg2d: Sum(rhs),rhsMax =   1.21304108569621E-03  1.30360654398240E-02
 cg2d: Sum(rhs),rhsMax =   1.21331369422882E-03  1.30362487063723E-02
 cg2d: Sum(rhs),rhsMax =   1.21358638831124E-03  1.30364317542091E-02
 cg2d: Sum(rhs),rhsMax =   1.21385912244740E-03  1.30366145760149E-02
 cg2d: Sum(rhs),rhsMax =   1.21413180229873E-03  1.30367971793492E-02
 cg2d: Sum(rhs),rhsMax =   1.21440463145107E-03  1.30369795584518E-02
 cg2d: Sum(rhs),rhsMax =   1.21467753523124E-03  1.30371617166628E-02
 cg2d: Sum(rhs),rhsMax =   1.21495057386241E-03  1.30373436497413E-02
 cg2d: Sum(rhs),rhsMax =   1.21522365609826E-03  1.30375253630260E-02
 cg2d: Sum(rhs),rhsMax =   1.21549686578941E-03  1.30377068516891E-02
 cg2d: Sum(rhs),rhsMax =   1.21577011767458E-03  1.30378881198802E-02
 cg2d: Sum(rhs),rhsMax =   1.21604349161623E-03  1.30380691620077E-02
 cg2d: Sum(rhs),rhsMax =   1.21631691595450E-03  1.30382499841388E-02
 cg2d: Sum(rhs),rhsMax =   1.21659046829610E-03  1.30384305805119E-02
 cg2d: Sum(rhs),rhsMax =   1.21686418132595E-03  1.30386109540558E-02
 cg2d: Sum(rhs),rhsMax =   1.21713794665803E-03  1.30387911013097E-02
 cg2d: Sum(rhs),rhsMax =   1.21741185486170E-03  1.30389710276865E-02
 cg2d: Sum(rhs),rhsMax =   1.21768585015601E-03  1.30391507292771E-02
 cg2d: Sum(rhs),rhsMax =   1.21796001455960E-03  1.30393302059299E-02
 cg2d: Sum(rhs),rhsMax =   1.21823433770232E-03  1.30395094562972E-02
 cg2d: Sum(rhs),rhsMax =   1.21850880829502E-03  1.30396884854684E-02
 cg2d: Sum(rhs),rhsMax =   1.21878340013504E-03  1.30398672879088E-02
 cg2d: Sum(rhs),rhsMax =   1.21905812058069E-03  1.30400458670345E-02
 cg2d: Sum(rhs),rhsMax =   1.21933300753903E-03  1.30402242184068E-02
 cg2d: Sum(rhs),rhsMax =   1.21960806999363E-03  1.30404023467845E-02
 cg2d: Sum(rhs),rhsMax =   1.21988325326436E-03  1.30405802493698E-02
 cg2d: Sum(rhs),rhsMax =   1.22015859428125E-03  1.30407579264703E-02
 cg2d: Sum(rhs),rhsMax =   1.22037445244344E-03  1.30409353560951E-02
 cg2d: Sum(rhs),rhsMax =   1.22059045811757E-03  1.30411125826090E-02
 cg2d: Sum(rhs),rhsMax =   1.22080656441635E-03  1.30412895812670E-02
 cg2d: Sum(rhs),rhsMax =   1.22102277255271E-03  1.30414663551504E-02
 cg2d: Sum(rhs),rhsMax =   1.22123913536926E-03  1.30416429024067E-02
 cg2d: Sum(rhs),rhsMax =   1.22145565046118E-03  1.30418192233252E-02
 cg2d: Sum(rhs),rhsMax =   1.22167229252104E-03  1.30419953168555E-02
 cg2d: Sum(rhs),rhsMax =   1.22188907552657E-03  1.30421711837888E-02
 cg2d: Sum(rhs),rhsMax =   1.22210601528471E-03  1.30423468230695E-02
 cg2d: Sum(rhs),rhsMax =   1.22232306656458E-03  1.30425222362243E-02
 cg2d: Sum(rhs),rhsMax =   1.22254025441505E-03  1.30426974208812E-02
 cg2d: Sum(rhs),rhsMax =   1.22275756626315E-03  1.30428723800758E-02
 cg2d: Sum(rhs),rhsMax =   1.22297500384948E-03  1.30430471110751E-02
 cg2d: Sum(rhs),rhsMax =   1.22319260844394E-03  1.30432216145563E-02
 cg2d: Sum(rhs),rhsMax =   1.22341032939996E-03  1.30433958894659E-02
 cg2d: Sum(rhs),rhsMax =   1.22362816320778E-03  1.30435699373964E-02
 cg2d: Sum(rhs),rhsMax =   1.22384616321691E-03  1.30437437577441E-02
 cg2d: Sum(rhs),rhsMax =   1.22406433057350E-03  1.30439173497967E-02
 cg2d: Sum(rhs),rhsMax =   1.22428264458976E-03  1.30440907110681E-02
 cg2d: Sum(rhs),rhsMax =   1.22450107731036E-03  1.30442638451027E-02
 cg2d: Sum(rhs),rhsMax =   1.22471968844556E-03  1.30444367529950E-02
 cg2d: Sum(rhs),rhsMax =   1.22493842726990E-03  1.30446094317789E-02
 cg2d: Sum(rhs),rhsMax =   1.22515733186472E-03  1.30447818787097E-02
 cg2d: Sum(rhs),rhsMax =   1.22537635471287E-03  1.30449540973483E-02
 cg2d: Sum(rhs),rhsMax =   1.22559555658731E-03  1.30451260896956E-02
 cg2d: Sum(rhs),rhsMax =   1.22581486512195E-03  1.30452978524682E-02
 cg2d: Sum(rhs),rhsMax =   1.22603430527470E-03  1.30454693825526E-02
 cg2d: Sum(rhs),rhsMax =   1.22625391937091E-03  1.30456406842670E-02
 cg2d: Sum(rhs),rhsMax =   1.22647363498802E-03  1.30458117590705E-02
 cg2d: Sum(rhs),rhsMax =   1.22669354888406E-03  1.30459826032180E-02
 cg2d: Sum(rhs),rhsMax =   1.22691354550435E-03  1.30461532142257E-02
 cg2d: Sum(rhs),rhsMax =   1.22713372445873E-03  1.30463235979640E-02
 cg2d: Sum(rhs),rhsMax =   1.22735402231950E-03  1.30464937536682E-02
 cg2d: Sum(rhs),rhsMax =   1.22757450671439E-03  1.30466636766696E-02
 cg2d: Sum(rhs),rhsMax =   1.22779511948668E-03  1.30468333683609E-02
 cg2d: Sum(rhs),rhsMax =   1.22801583218672E-03  1.30470028298559E-02
(PID.TID 0000.0001)      cg2d_init_res =   2.43759758324122E-03
(PID.TID 0000.0001)      cg2d_iters(min,last) =      -1     365
(PID.TID 0000.0001)      cg2d_last_res =   9.90235086718268E-08
(PID.TID 0000.0001) // =======================================================
(PID.TID 0000.0001) // Begin MONITOR dynamic field statistics
(PID.TID 0000.0001) // =======================================================
(PID.TID 0000.0001) %MON time_tsnumber                =                 13248
(PID.TID 0000.0001) %MON time_secondsf                =   1.5897600000000E+07
(PID.TID 0000.0001) %MON dynstat_eta_max              =   1.1980582427856E-01
(PID.TID 0000.0001) %MON dynstat_eta_min              =  -2.9854178310033E-01
(PID.TID 0000.0001) %MON dynstat_eta_mean             =  -7.6259616843466E-08
(PID.TID 0000.0001) %MON dynstat_eta_sd               =   1.0844338694989E-01
(PID.TID 0000.0001) %MON dynstat_eta_del2             =   6.5245406964899E-07
(PID.TID 0000.0001) %MON dynstat_uvel_max             =   1.1357515874927E-01
(PID.TID 0000.0001) %MON dynstat_uvel_min             =  -1.2019782395912E-01
(PID.TID 0000.0001) %MON dynstat_uvel_mean            =  -4.7724793544154E-08
(PID.TID 0000.0001) %MON dynstat_uvel_sd              =   4.5150893971791E-02
(PID.TID 0000.0001) %MON dynstat_uvel_del2            =   9.9462112689617E-07
(PID.TID 0000.0001) %MON dynstat_vvel_max             =   1.2975797871635E-01
(PID.TID 0000.0001) %MON dynstat_vvel_min             =  -1.0657703705434E-01
(PID.TID 0000.0001) %MON dynstat_vvel_mean            =  -6.9308611766446E-08
(PID.TID 0000.0001) %MON dynstat_vvel_sd              =   4.1930582582549E-02
(PID.TID 0000.0001) %MON dynstat_vvel_del2            =   1.2590264267286E-06
(PID.TID 0000.0001) %MON dynstat_wvel_max             =   9.8359873378649E-09
(PID.TID 0000.0001) %MON dynstat_wvel_min             =  -9.7473886108492E-09
(PID.TID 0000.0001) %MON dynstat_wvel_mean            =  -5.7749876991579E-21
(PID.TID 0000.0001) %MON dynstat_wvel_sd              =   3.5773863672796E-09
(PID.TID 0000.0001) %MON dynstat_wvel_del2            =   3.8259638394296E-14
(PID.TID 0000.0001) %MON dynstat_theta_max            =   2.0000000000000E+01
(PID.TID 0000.0001) %MON dynstat_theta_min            =   2.0000000000000E+01
(PID.TID 0000.0001) %MON dynstat_theta_mean           =   1.9999999999999E+01
(PID.TID 0000.0001) %MON dynstat_theta_sd             =   1.1972645097557E-12
(PID.TID 0000.0001) %MON dynstat_theta_del2           =   0.0000000000000E+00
(PID.TID 0000.0001) %MON dynstat_salt_max             =   3.0000000000000E+01
(PID.TID 0000.0001) %MON dynstat_salt_min             =   3.0000000000000E+01
(PID.TID 0000.0001) %MON dynstat_salt_mean            =   2.9999999999998E+01
(PID.TID 0000.0001) %MON dynstat_salt_sd              =   2.1529444893531E-12
(PID.TID 0000.0001) %MON dynstat_salt_del2            =   0.0000000000000E+00
(PID.TID 0000.0001) %MON trAdv_CFL_u_max              =   2.8846528589295E-02
(PID.TID 0000.0001) %MON trAdv_CFL_v_max              =   3.1140368264880E-02
(PID.TID 0000.0001) %MON trAdv_CFL_w_max              =   2.5090058461586E-09
(PID.TID 0000.0001) %MON advcfl_uvel_max              =   2.8847477750189E-02
(PID.TID 0000.0001) %MON advcfl_vvel_max              =   3.1141914891925E-02
(PID.TID 0000.0001) %MON advcfl_wvel_max              =   4.7212739221752E-09
(PID.TID 0000.0001) %MON advcfl_W_hf_max              =   0.0000000000000E+00
(PID.TID 0000.0001) %MON pe_b_mean                    =   1.2032058179098E-05
(PID.TID 0000.0001) %MON ke_max                       =   8.4758211821503E-03
(PID.TID 0000.0001) %MON ke_mean                      =   1.8898431220162E-03
(PID.TID 0000.0001) %MON ke_vol                       =   7.2529629296391E+15
(PID.TID 0000.0001) %MON vort_r_min                   =  -4.1506393957702E-06
(PID.TID 0000.0001) %MON vort_r_max                   =   3.2296040667860E-06
(PID.TID 0000.0001) %MON vort_a_mean                  =   1.0615000000000E-04
(PID.TID 0000.0001) %MON vort_a_sd                    =   3.6272051633599E-06
(PID.TID 0000.0001) %MON vort_p_mean                  =   1.1210870169429E-04
(PID.TID 0000.0001) %MON vort_p_sd                    =   2.1065926872267E-05
(PID.TID 0000.0001) %MON surfExpan_theta_mean         =  -1.1552838290310E-19
(PID.TID 0000.0001) %MON surfExpan_salt_mean          =  -1.7329820079822E-19
(PID.TID 0000.0001) // =======================================================
(PID.TID 0000.0001) // End MONITOR dynamic field statistics
(PID.TID 0000.0001) // =======================================================
 cg2d: Sum(rhs),rhsMax =   1.22823674209492E-03  1.30471720645677E-02
 cg2d: Sum(rhs),rhsMax =   1.22845774564439E-03  1.30473410666008E-02
 cg2d: Sum(rhs),rhsMax =   1.22867891118291E-03  1.30475098369913E-02
 cg2d: Sum(rhs),rhsMax =   1.22890019585182E-03  1.30476783760361E-02
 cg2d: Sum(rhs),rhsMax =   1.22912166782465E-03  1.30478466839848E-02
 cg2d: Sum(rhs),rhsMax =   1.22934319005064E-03  1.30480147586579E-02
 cg2d: Sum(rhs),rhsMax =   1.22956491333760E-03  1.30481826080976E-02
 cg2d: Sum(rhs),rhsMax =   1.22978675905854E-03  1.30483502243409E-02
 cg2d: Sum(rhs),rhsMax =   1.23000876377827E-03  1.30485176073997E-02
 cg2d: Sum(rhs),rhsMax =   1.23023090510917E-03  1.30486847585307E-02
 cg2d: Sum(rhs),rhsMax =   1.23045315279583E-03  1.30488516796542E-02
 cg2d: Sum(rhs),rhsMax =   1.23067543917837E-03  1.30490183714759E-02
 cg2d: Sum(rhs),rhsMax =   1.23089795038245E-03  1.30491848254739E-02
 cg2d: Sum(rhs),rhsMax =   1.23112054973693E-03  1.30493510488882E-02
 cg2d: Sum(rhs),rhsMax =   1.23131855912293E-03  1.30495170423585E-02
 cg2d: Sum(rhs),rhsMax =   1.23151658727684E-03  1.30496828019502E-02
 cg2d: Sum(rhs),rhsMax =   1.23171482197644E-03  1.30498483308119E-02
 cg2d: Sum(rhs),rhsMax =   1.23191307637883E-03  1.30500136266953E-02
 cg2d: Sum(rhs),rhsMax =   1.23211149305779E-03  1.30501786902678E-02
 cg2d: Sum(rhs),rhsMax =   1.23230998756204E-03  1.30503435207697E-02
 cg2d: Sum(rhs),rhsMax =   1.23250856985600E-03  1.30505081198501E-02
 cg2d: Sum(rhs),rhsMax =   1.23270723475542E-03  1.30506724855901E-02
 cg2d: Sum(rhs),rhsMax =   1.23290590283269E-03  1.30508366183402E-02
 cg2d: Sum(rhs),rhsMax =   1.23310479764354E-03  1.30510005185491E-02
 cg2d: Sum(rhs),rhsMax =   1.23330373944420E-03  1.30511641859577E-02
 cg2d: Sum(rhs),rhsMax =   1.23350281587926E-03  1.30513276190972E-02
 cg2d: Sum(rhs),rhsMax =   1.23370195987286E-03  1.30514908199276E-02
 cg2d: Sum(rhs),rhsMax =   1.23390104328777E-03  1.30516537848499E-02
 cg2d: Sum(rhs),rhsMax =   1.23410037250895E-03  1.30518165214798E-02
 cg2d: Sum(rhs),rhsMax =   1.23429975208822E-03  1.30519790219490E-02
 cg2d: Sum(rhs),rhsMax =   1.23449926870941E-03  1.30521412888333E-02
 cg2d: Sum(rhs),rhsMax =   1.23469885043521E-03  1.30523033219021E-02
 cg2d: Sum(rhs),rhsMax =   1.23489850415443E-03  1.30524651216502E-02
 cg2d: Sum(rhs),rhsMax =   1.23509822124757E-03  1.30526266874347E-02
 cg2d: Sum(rhs),rhsMax =   1.23529804838416E-03  1.30527880194643E-02
 cg2d: Sum(rhs),rhsMax =   1.23549787398293E-03  1.30529491173134E-02
 cg2d: Sum(rhs),rhsMax =   1.23569781813022E-03  1.30531099812250E-02
 cg2d: Sum(rhs),rhsMax =   1.23589784901501E-03  1.30532706102208E-02
 cg2d: Sum(rhs),rhsMax =   1.23609792252714E-03  1.30534310058013E-02
 cg2d: Sum(rhs),rhsMax =   1.23629807045172E-03  1.30535911666561E-02
 cg2d: Sum(rhs),rhsMax =   1.23649821116845E-03  1.30537510916531E-02
 cg2d: Sum(rhs),rhsMax =   1.23669850734097E-03  1.30539107876384E-02
 cg2d: Sum(rhs),rhsMax =   1.23689885840871E-03  1.30540702453148E-02
 cg2d: Sum(rhs),rhsMax =   1.23709919160339E-03  1.30542294662736E-02
 cg2d: Sum(rhs),rhsMax =   1.23729966581825E-03  1.30543884570052E-02
 cg2d: Sum(rhs),rhsMax =   1.23750013877709E-03  1.30545472113056E-02
 cg2d: Sum(rhs),rhsMax =   1.23770073181023E-03  1.30547057303244E-02
 cg2d: Sum(rhs),rhsMax =   1.23790136020939E-03  1.30548640143571E-02
 cg2d: Sum(rhs),rhsMax =   1.23810206382224E-03  1.30550220636608E-02
 cg2d: Sum(rhs),rhsMax =   1.23830277984624E-03  1.30551798780784E-02
 cg2d: Sum(rhs),rhsMax =   1.23850358908116E-03  1.30553374577015E-02
 cg2d: Sum(rhs),rhsMax =   1.23870431018171E-03  1.30554948024312E-02
 cg2d: Sum(rhs),rhsMax =   1.23890520376923E-03  1.30556519105852E-02
 cg2d: Sum(rhs),rhsMax =   1.23910607239765E-03  1.30558087827574E-02
 cg2d: Sum(rhs),rhsMax =   1.23930703651605E-03  1.30559654221764E-02
 cg2d: Sum(rhs),rhsMax =   1.23950801555207E-03  1.30561218252656E-02
 cg2d: Sum(rhs),rhsMax =   1.23970905731432E-03  1.30562779936356E-02
 cg2d: Sum(rhs),rhsMax =   1.23991012027027E-03  1.30564339255739E-02
 cg2d: Sum(rhs),rhsMax =   1.24011118000363E-03  1.30565896214150E-02
 cg2d: Sum(rhs),rhsMax =   1.24031230620346E-03  1.30567450828104E-02
 cg2d: Sum(rhs),rhsMax =   1.24051339580492E-03  1.30569003091907E-02
 cg2d: Sum(rhs),rhsMax =   1.24071452376547E-03  1.30570552984062E-02
 cg2d: Sum(rhs),rhsMax =   1.24091569359094E-03  1.30572100507584E-02
 cg2d: Sum(rhs),rhsMax =   1.24111692141203E-03  1.30573645690662E-02
 cg2d: Sum(rhs),rhsMax =   1.24131816675936E-03  1.30575188513906E-02
 cg2d: Sum(rhs),rhsMax =   1.24151943513504E-03  1.30576728964530E-02
 cg2d: Sum(rhs),rhsMax =   1.24172070111058E-03  1.30578267067963E-02
 cg2d: Sum(rhs),rhsMax =   1.24192198388742E-03  1.30579802802193E-02
 cg2d: Sum(rhs),rhsMax =   1.24212322329776E-03  1.30581336171319E-02
 cg2d: Sum(rhs),rhsMax =   1.24232452163055E-03  1.30582867203505E-02
 cg2d: Sum(rhs),rhsMax =   1.24252583289388E-03  1.30584395856557E-02
 cg2d: Sum(rhs),rhsMax =   1.24272716806364E-03  1.30585922152839E-02
(PID.TID 0000.0001)      cg2d_init_res =   2.42661652062831E-03
(PID.TID 0000.0001)      cg2d_iters(min,last) =      -1     366
(PID.TID 0000.0001)      cg2d_last_res =   9.36973679757099E-08
(PID.TID 0000.0001) // =======================================================
(PID.TID 0000.0001) // Begin MONITOR dynamic field statistics
(PID.TID 0000.0001) // =======================================================
(PID.TID 0000.0001) %MON time_tsnumber                =                 13320
(PID.TID 0000.0001) %MON time_secondsf                =   1.5984000000000E+07
(PID.TID 0000.0001) %MON dynstat_eta_max              =   1.2028206959681E-01
(PID.TID 0000.0001) %MON dynstat_eta_min              =  -2.9935853258921E-01
(PID.TID 0000.0001) %MON dynstat_eta_mean             =  -7.7240258223676E-08
(PID.TID 0000.0001) %MON dynstat_eta_sd               =   1.0867787647889E-01
(PID.TID 0000.0001) %MON dynstat_eta_del2             =   6.5423613179334E-07
(PID.TID 0000.0001) %MON dynstat_uvel_max             =   1.1370722499672E-01
(PID.TID 0000.0001) %MON dynstat_uvel_min             =  -1.2047870413931E-01
(PID.TID 0000.0001) %MON dynstat_uvel_mean            =  -4.2568241226156E-08
(PID.TID 0000.0001) %MON dynstat_uvel_sd              =   4.5240080694756E-02
(PID.TID 0000.0001) %MON dynstat_uvel_del2            =   9.9657559462558E-07
(PID.TID 0000.0001) %MON dynstat_vvel_max             =   1.3022059436297E-01
(PID.TID 0000.0001) %MON dynstat_vvel_min             =  -1.0680308940972E-01
(PID.TID 0000.0001) %MON dynstat_vvel_mean            =  -6.0065854129794E-08
(PID.TID 0000.0001) %MON dynstat_vvel_sd              =   4.2058412423454E-02
(PID.TID 0000.0001) %MON dynstat_vvel_del2            =   1.2634776451177E-06
(PID.TID 0000.0001) %MON dynstat_wvel_max             =   9.5145481359214E-09
(PID.TID 0000.0001) %MON dynstat_wvel_min             =  -9.6706911898218E-09
(PID.TID 0000.0001) %MON dynstat_wvel_mean            =  -1.5193389017121E-20
(PID.TID 0000.0001) %MON dynstat_wvel_sd              =   3.5174708776656E-09
(PID.TID 0000.0001) %MON dynstat_wvel_del2            =   3.8024487191616E-14
(PID.TID 0000.0001) %MON dynstat_theta_max            =   2.0000000000000E+01
(PID.TID 0000.0001) %MON dynstat_theta_min            =   2.0000000000000E+01
(PID.TID 0000.0001) %MON dynstat_theta_mean           =   1.9999999999999E+01
(PID.TID 0000.0001) %MON dynstat_theta_sd             =   1.1972645097557E-12
(PID.TID 0000.0001) %MON dynstat_theta_del2           =   0.0000000000000E+00
(PID.TID 0000.0001) %MON dynstat_salt_max             =   3.0000000000000E+01
(PID.TID 0000.0001) %MON dynstat_salt_min             =   3.0000000000000E+01
(PID.TID 0000.0001) %MON dynstat_salt_mean            =   2.9999999999998E+01
(PID.TID 0000.0001) %MON dynstat_salt_sd              =   2.1529444893531E-12
(PID.TID 0000.0001) %MON dynstat_salt_del2            =   0.0000000000000E+00
(PID.TID 0000.0001) %MON trAdv_CFL_u_max              =   2.8913965330468E-02
(PID.TID 0000.0001) %MON trAdv_CFL_v_max              =   3.1251405456877E-02
(PID.TID 0000.0001) %MON trAdv_CFL_w_max              =   2.4190218064726E-09
(PID.TID 0000.0001) %MON advcfl_uvel_max              =   2.8914888993435E-02
(PID.TID 0000.0001) %MON advcfl_vvel_max              =   3.1252942647114E-02
(PID.TID 0000.0001) %MON advcfl_wvel_max              =   4.6419317711145E-09
(PID.TID 0000.0001) %MON advcfl_W_hf_max              =   0.0000000000000E+00
(PID.TID 0000.0001) %MON pe_b_mean                    =   1.2084148806541E-05
(PID.TID 0000.0001) %MON ke_max                       =   8.5367772581942E-03
(PID.TID 0000.0001) %MON ke_mean                      =   1.8991998009391E-03
(PID.TID 0000.0001) %MON ke_vol                       =   7.2529629296391E+15
(PID.TID 0000.0001) %MON vort_r_min                   =  -4.1547174940704E-06
(PID.TID 0000.0001) %MON vort_r_max                   =   3.2466003232896E-06
(PID.TID 0000.0001) %MON vort_a_mean                  =   1.0615000000000E-04
(PID.TID 0000.0001) %MON vort_a_sd                    =   3.6275391082459E-06
(PID.TID 0000.0001) %MON vort_p_mean                  =   1.1210870169429E-04
(PID.TID 0000.0001) %MON vort_p_sd                    =   2.1066016792429E-05
(PID.TID 0000.0001) %MON surfExpan_theta_mean         =  -3.0392241833132E-19
(PID.TID 0000.0001) %MON surfExpan_salt_mean          =  -4.5587040667735E-19
(PID.TID 0000.0001) // =======================================================
(PID.TID 0000.0001) // End MONITOR dynamic field statistics
(PID.TID 0000.0001) // =======================================================
 cg2d: Sum(rhs),rhsMax =   1.24292848494650E-03  1.30587446078193E-02
 cg2d: Sum(rhs),rhsMax =   1.24312981002729E-03  1.30588967651005E-02
 cg2d: Sum(rhs),rhsMax =   1.24333109818840E-03  1.30590486854220E-02
 cg2d: Sum(rhs),rhsMax =   1.24353241054868E-03  1.30592003679808E-02
 cg2d: Sum(rhs),rhsMax =   1.24373372048007E-03  1.30593518156484E-02
 cg2d: Sum(rhs),rhsMax =   1.24393492003383E-03  1.30595030258557E-02
 cg2d: Sum(rhs),rhsMax =   1.24413621764665E-03  1.30596540018006E-02
 cg2d: Sum(rhs),rhsMax =   1.24433739226090E-03  1.30598047383613E-02
 cg2d: Sum(rhs),rhsMax =   1.24453865983267E-03  1.30599552408674E-02
 cg2d: Sum(rhs),rhsMax =   1.24473978606066E-03  1.30601055033196E-02
 cg2d: Sum(rhs),rhsMax =   1.24494099137046E-03  1.30602555314186E-02
 cg2d: Sum(rhs),rhsMax =   1.24514213615465E-03  1.30604053215336E-02
 cg2d: Sum(rhs),rhsMax =   1.24534325245725E-03  1.30605548767782E-02
 cg2d: Sum(rhs),rhsMax =   1.24554436028566E-03  1.30607041943534E-02
 cg2d: Sum(rhs),rhsMax =   1.24574543987990E-03  1.30608532741235E-02
 cg2d: Sum(rhs),rhsMax =   1.24594644478154E-03  1.30610021164209E-02
 cg2d: Sum(rhs),rhsMax =   1.24614744525066E-03  1.30611507250953E-02
 cg2d: Sum(rhs),rhsMax =   1.24634838550086E-03  1.30612990960460E-02
 cg2d: Sum(rhs),rhsMax =   1.24654931943136E-03  1.30614472283058E-02
 cg2d: Sum(rhs),rhsMax =   1.24675018574943E-03  1.30615951240804E-02
 cg2d: Sum(rhs),rhsMax =   1.24695101606145E-03  1.30617427829510E-02
 cg2d: Sum(rhs),rhsMax =   1.24715173776716E-03  1.30618902050806E-02
 cg2d: Sum(rhs),rhsMax =   1.24735243943706E-03  1.30620373898759E-02
 cg2d: Sum(rhs),rhsMax =   1.24755310481059E-03  1.30621843364874E-02
 cg2d: Sum(rhs),rhsMax =   1.24775371490963E-03  1.30623310472873E-02
 cg2d: Sum(rhs),rhsMax =   1.24795424137866E-03  1.30624775204721E-02
 cg2d: Sum(rhs),rhsMax =   1.24815467146246E-03  1.30626237572018E-02
 cg2d: Sum(rhs),rhsMax =   1.24835509252338E-03  1.30627697572728E-02
 cg2d: Sum(rhs),rhsMax =   1.24855527668486E-03  1.30629155186717E-02
 cg2d: Sum(rhs),rhsMax =   1.24875548592258E-03  1.30630610431616E-02
 cg2d: Sum(rhs),rhsMax =   1.24895562064862E-03  1.30632063288715E-02
 cg2d: Sum(rhs),rhsMax =   1.24915570045373E-03  1.30633513813982E-02
 cg2d: Sum(rhs),rhsMax =   1.24935568575819E-03  1.30634961931126E-02
 cg2d: Sum(rhs),rhsMax =   1.24955555591532E-03  1.30636407672475E-02
 cg2d: Sum(rhs),rhsMax =   1.24975534802303E-03  1.30637851071910E-02
 cg2d: Sum(rhs),rhsMax =   1.24995507042255E-03  1.30639292085210E-02
 cg2d: Sum(rhs),rhsMax =   1.25015470826557E-03  1.30640730723233E-02
 cg2d: Sum(rhs),rhsMax =   1.25035421109888E-03  1.30642166986099E-02
 cg2d: Sum(rhs),rhsMax =   1.25055364221443E-03  1.30643600877599E-02
 cg2d: Sum(rhs),rhsMax =   1.25075290881026E-03  1.30645032392121E-02
 cg2d: Sum(rhs),rhsMax =   1.25095209430750E-03  1.30646461536095E-02
 cg2d: Sum(rhs),rhsMax =   1.25115117077685E-03  1.30647888303022E-02
 cg2d: Sum(rhs),rhsMax =   1.25135010127494E-03  1.30649312698523E-02
 cg2d: Sum(rhs),rhsMax =   1.25154888991343E-03  1.30650734725632E-02
 cg2d: Sum(rhs),rhsMax =   1.25174745484668E-03  1.30652154340238E-02
 cg2d: Sum(rhs),rhsMax =   1.25194600793471E-03  1.30653571641504E-02
 cg2d: Sum(rhs),rhsMax =   1.25214439165690E-03  1.30654986526476E-02
 cg2d: Sum(rhs),rhsMax =   1.25234267985170E-03  1.30656399054401E-02
 cg2d: Sum(rhs),rhsMax =   1.25254080503843E-03  1.30657809195804E-02
 cg2d: Sum(rhs),rhsMax =   1.25273871453700E-03  1.30659216971582E-02
 cg2d: Sum(rhs),rhsMax =   1.25293652607059E-03  1.30660622386691E-02
 cg2d: Sum(rhs),rhsMax =   1.25313416194771E-03  1.30662025414440E-02
 cg2d: Sum(rhs),rhsMax =   1.25333166982465E-03  1.30663426046089E-02
 cg2d: Sum(rhs),rhsMax =   1.25352897468083E-03  1.30664824324833E-02
 cg2d: Sum(rhs),rhsMax =   1.25372613837115E-03  1.30666220231285E-02
 cg2d: Sum(rhs),rhsMax =   1.25392312905878E-03  1.30667613771344E-02
 cg2d: Sum(rhs),rhsMax =   1.25411991234614E-03  1.30669004916679E-02
 cg2d: Sum(rhs),rhsMax =   1.25431652126644E-03  1.30670393708576E-02
 cg2d: Sum(rhs),rhsMax =   1.25451285506853E-03  1.30671780101869E-02
 cg2d: Sum(rhs),rhsMax =   1.25470904717491E-03  1.30673164141605E-02
 cg2d: Sum(rhs),rhsMax =   1.25490506044455E-03  1.30674545794546E-02
 cg2d: Sum(rhs),rhsMax =   1.25510086314261E-03  1.30675925081388E-02
 cg2d: Sum(rhs),rhsMax =   1.25529646087952E-03  1.30677301981481E-02
 cg2d: Sum(rhs),rhsMax =   1.25549183367726E-03  1.30678676528024E-02
 cg2d: Sum(rhs),rhsMax =   1.25568694392175E-03  1.30680048689402E-02
 cg2d: Sum(rhs),rhsMax =   1.25588184834442E-03  1.30681418502695E-02
 cg2d: Sum(rhs),rhsMax =   1.25607648650074E-03  1.30682785914010E-02
 cg2d: Sum(rhs),rhsMax =   1.25627093491392E-03  1.30684150949924E-02
 cg2d: Sum(rhs),rhsMax =   1.25646509356395E-03  1.30685513603037E-02
 cg2d: Sum(rhs),rhsMax =   1.25665903371626E-03  1.30686873924385E-02
 cg2d: Sum(rhs),rhsMax =   1.25685266816628E-03  1.30688231858026E-02
 cg2d: Sum(rhs),rhsMax =   1.25704600891191E-03  1.30689587388211E-02
(PID.TID 0000.0001)      cg2d_init_res =   2.41235515200886E-03
(PID.TID 0000.0001)      cg2d_iters(min,last) =      -1     366
(PID.TID 0000.0001)      cg2d_last_res =   9.24793501900470E-08
(PID.TID 0000.0001) // =======================================================
(PID.TID 0000.0001) // Begin MONITOR dynamic field statistics
(PID.TID 0000.0001) // =======================================================
(PID.TID 0000.0001) %MON time_tsnumber                =                 13392
(PID.TID 0000.0001) %MON time_secondsf                =   1.6070400000000E+07
(PID.TID 0000.0001) %MON dynstat_eta_max              =   1.2078645058745E-01
(PID.TID 0000.0001) %MON dynstat_eta_min              =  -3.0017049831301E-01
(PID.TID 0000.0001) %MON dynstat_eta_mean             =  -7.8191495081380E-08
(PID.TID 0000.0001) %MON dynstat_eta_sd               =   1.0890896031899E-01
(PID.TID 0000.0001) %MON dynstat_eta_del2             =   6.5600542695203E-07
(PID.TID 0000.0001) %MON dynstat_uvel_max             =   1.1383054596789E-01
(PID.TID 0000.0001) %MON dynstat_uvel_min             =  -1.2075189687195E-01
(PID.TID 0000.0001) %MON dynstat_uvel_mean            =  -3.5320930908623E-08
(PID.TID 0000.0001) %MON dynstat_uvel_sd              =   4.5324801009494E-02
(PID.TID 0000.0001) %MON dynstat_uvel_del2            =   9.9845817962452E-07
(PID.TID 0000.0001) %MON dynstat_vvel_max             =   1.3067998913758E-01
(PID.TID 0000.0001) %MON dynstat_vvel_min             =  -1.0704176963476E-01
(PID.TID 0000.0001) %MON dynstat_vvel_mean            =  -5.1883549685516E-08
(PID.TID 0000.0001) %MON dynstat_vvel_sd              =   4.2189252045127E-02
(PID.TID 0000.0001) %MON dynstat_vvel_del2            =   1.2677634383207E-06
(PID.TID 0000.0001) %MON dynstat_wvel_max             =   9.1470294818282E-09
(PID.TID 0000.0001) %MON dynstat_wvel_min             =  -9.5840345043689E-09
(PID.TID 0000.0001) %MON dynstat_wvel_mean            =  -1.3988945206858E-22
(PID.TID 0000.0001) %MON dynstat_wvel_sd              =   3.4607183339444E-09
(PID.TID 0000.0001) %MON dynstat_wvel_del2            =   3.7880510026320E-14
(PID.TID 0000.0001) %MON dynstat_theta_max            =   2.0000000000000E+01
(PID.TID 0000.0001) %MON dynstat_theta_min            =   2.0000000000000E+01
(PID.TID 0000.0001) %MON dynstat_theta_mean           =   1.9999999999999E+01
(PID.TID 0000.0001) %MON dynstat_theta_sd             =   1.1972645097557E-12
(PID.TID 0000.0001) %MON dynstat_theta_del2           =   0.0000000000000E+00
(PID.TID 0000.0001) %MON dynstat_salt_max             =   3.0000000000000E+01
(PID.TID 0000.0001) %MON dynstat_salt_min             =   3.0000000000000E+01
(PID.TID 0000.0001) %MON dynstat_salt_mean            =   2.9999999999998E+01
(PID.TID 0000.0001) %MON dynstat_salt_sd              =   2.1529444893531E-12
(PID.TID 0000.0001) %MON dynstat_salt_del2            =   0.0000000000000E+00
(PID.TID 0000.0001) %MON trAdv_CFL_u_max              =   2.8979557268510E-02
(PID.TID 0000.0001) %MON trAdv_CFL_v_max              =   3.1361672222269E-02
(PID.TID 0000.0001) %MON trAdv_CFL_w_max              =   2.3201111747079E-09
(PID.TID 0000.0001) %MON advcfl_uvel_max              =   2.8980455249267E-02
(PID.TID 0000.0001) %MON advcfl_vvel_max              =   3.1363197393019E-02
(PID.TID 0000.0001) %MON advcfl_wvel_max              =   4.6003365620971E-09
(PID.TID 0000.0001) %MON advcfl_W_hf_max              =   0.0000000000000E+00
(PID.TID 0000.0001) %MON pe_b_mean                    =   1.2135592953639E-05
(PID.TID 0000.0001) %MON ke_max                       =   8.5975125933885E-03
(PID.TID 0000.0001) %MON ke_mean                      =   1.9085055318069E-03
(PID.TID 0000.0001) %MON ke_vol                       =   7.2529629296391E+15
(PID.TID 0000.0001) %MON vort_r_min                   =  -4.1583919896931E-06
(PID.TID 0000.0001) %MON vort_r_max                   =   3.2635274805418E-06
(PID.TID 0000.0001) %MON vort_a_mean                  =   1.0615000000000E-04
(PID.TID 0000.0001) %MON vort_a_sd                    =   3.6278703824048E-06
(PID.TID 0000.0001) %MON vort_p_mean                  =   1.1210870169429E-04
(PID.TID 0000.0001) %MON vort_p_sd                    =   2.1066110718963E-05
(PID.TID 0000.0001) %MON surfExpan_theta_mean         =  -2.8314299076998E-21
(PID.TID 0000.0001) %MON surfExpan_salt_mean          =  -4.2476286073477E-21
(PID.TID 0000.0001) // =======================================================
(PID.TID 0000.0001) // End MONITOR dynamic field statistics
(PID.TID 0000.0001) // =======================================================
 cg2d: Sum(rhs),rhsMax =   1.25723911507367E-03  1.30690940566452E-02
 cg2d: Sum(rhs),rhsMax =   1.25743194264344E-03  1.30692291388208E-02
 cg2d: Sum(rhs),rhsMax =   1.25762445137966E-03  1.30693639823139E-02
 cg2d: Sum(rhs),rhsMax =   1.25781668530101E-03  1.30694985891134E-02
 cg2d: Sum(rhs),rhsMax =   1.25800856165733E-03  1.30696329564384E-02
 cg2d: Sum(rhs),rhsMax =   1.25820016080771E-03  1.30697670902690E-02
 cg2d: Sum(rhs),rhsMax =   1.25841481036452E-03  1.30699009866419E-02
 cg2d: Sum(rhs),rhsMax =   1.25862905528853E-03  1.30700346449106E-02
 cg2d: Sum(rhs),rhsMax =   1.25884292716268E-03  1.30701680647541E-02
 cg2d: Sum(rhs),rhsMax =   1.25905635491958E-03  1.30703012495148E-02
 cg2d: Sum(rhs),rhsMax =   1.25926926713459E-03  1.30704341962009E-02
 cg2d: Sum(rhs),rhsMax =   1.25948180683662E-03  1.30705669050692E-02
 cg2d: Sum(rhs),rhsMax =   1.25969384285694E-03  1.30706993753096E-02
 cg2d: Sum(rhs),rhsMax =   1.25990545907466E-03  1.30708316138291E-02
 cg2d: Sum(rhs),rhsMax =   1.26011656722532E-03  1.30709636142733E-02
 cg2d: Sum(rhs),rhsMax =   1.26032718341570E-03  1.30710953742329E-02
 cg2d: Sum(rhs),rhsMax =   1.26053723422364E-03  1.30712268959290E-02
 cg2d: Sum(rhs),rhsMax =   1.26080040784579E-03  1.30713582058439E-02
 cg2d: Sum(rhs),rhsMax =   1.26106286994992E-03  1.30714892557537E-02
 cg2d: Sum(rhs),rhsMax =   1.26132438476799E-03  1.30716200699733E-02
 cg2d: Sum(rhs),rhsMax =   1.26158511541827E-03  1.30717506459736E-02
 cg2d: Sum(rhs),rhsMax =   1.26184486901862E-03  1.30718809904684E-02
 cg2d: Sum(rhs),rhsMax =   1.26210378631794E-03  1.30720110977048E-02
 cg2d: Sum(rhs),rhsMax =   1.26236176858171E-03  1.30721409634650E-02
 cg2d: Sum(rhs),rhsMax =   1.26261881451210E-03  1.30722705937739E-02
 cg2d: Sum(rhs),rhsMax =   1.26287488571589E-03  1.30723999892594E-02
 cg2d: Sum(rhs),rhsMax =   1.26312992564609E-03  1.30725291483847E-02
 cg2d: Sum(rhs),rhsMax =   1.26338396733799E-03  1.30726580679562E-02
 cg2d: Sum(rhs),rhsMax =   1.26363685668528E-03  1.30727867513056E-02
 cg2d: Sum(rhs),rhsMax =   1.26388871495645E-03  1.30729152011388E-02
 cg2d: Sum(rhs),rhsMax =   1.26413945105644E-03  1.30730434134046E-02
 cg2d: Sum(rhs),rhsMax =   1.26438903875199E-03  1.30731713879759E-02
 cg2d: Sum(rhs),rhsMax =   1.26463747456909E-03  1.30732991256834E-02
 cg2d: Sum(rhs),rhsMax =   1.26490737988967E-03  1.30734266329013E-02
 cg2d: Sum(rhs),rhsMax =   1.26517579375785E-03  1.30735538958903E-02
 cg2d: Sum(rhs),rhsMax =   1.26544280867193E-03  1.30736809308300E-02
 cg2d: Sum(rhs),rhsMax =   1.26570819073466E-03  1.30738077231381E-02
 cg2d: Sum(rhs),rhsMax =   1.26597208375665E-03  1.30739342839524E-02
 cg2d: Sum(rhs),rhsMax =   1.26623433957736E-03  1.30740606039411E-02
 cg2d: Sum(rhs),rhsMax =   1.26649493836915E-03  1.30741866931630E-02
 cg2d: Sum(rhs),rhsMax =   1.26699980664595E-03  1.30743125312524E-02
 cg2d: Sum(rhs),rhsMax =   1.26749961038093E-03  1.30744381431787E-02
 cg2d: Sum(rhs),rhsMax =   1.26799407760832E-03  1.30745635204091E-02
 cg2d: Sum(rhs),rhsMax =   1.26848306906720E-03  1.30746886629490E-02
 cg2d: Sum(rhs),rhsMax =   1.26896646575430E-03  1.30748135707525E-02
 cg2d: Sum(rhs),rhsMax =   1.26946501955740E-03  1.30749382424740E-02
 cg2d: Sum(rhs),rhsMax =   1.26995725675151E-03  1.30750626747012E-02
 cg2d: Sum(rhs),rhsMax =   1.27044329956327E-03  1.30751868818829E-02
 cg2d: Sum(rhs),rhsMax =   1.27092274889937E-03  1.30753108443372E-02
 cg2d: Sum(rhs),rhsMax =   1.27139571380569E-03  1.30754345751932E-02
 cg2d: Sum(rhs),rhsMax =   1.27188154203059E-03  1.30755580663958E-02
 cg2d: Sum(rhs),rhsMax =   1.27236009853983E-03  1.30756813277693E-02
 cg2d: Sum(rhs),rhsMax =   1.27287139234032E-03  1.30758043489826E-02
 cg2d: Sum(rhs),rhsMax =   1.27337406921711E-03  1.30759271384023E-02
 cg2d: Sum(rhs),rhsMax =   1.27390729131688E-03  1.30760496885766E-02
 cg2d: Sum(rhs),rhsMax =   1.27444965212564E-03  1.30761720114669E-02
 cg2d: Sum(rhs),rhsMax =   1.27498167931643E-03  1.30762940980975E-02
 cg2d: Sum(rhs),rhsMax =   1.27552154178726E-03  1.30764159465961E-02
 cg2d: Sum(rhs),rhsMax =   1.27605029216360E-03  1.30765375630722E-02
 cg2d: Sum(rhs),rhsMax =   1.27656778523757E-03  1.30766589385940E-02
 cg2d: Sum(rhs),rhsMax =   1.27707393700513E-03  1.30767800825899E-02
 cg2d: Sum(rhs),rhsMax =   1.27758531122642E-03  1.30769009924482E-02
 cg2d: Sum(rhs),rhsMax =   1.27808462234977E-03  1.30770216704063E-02
 cg2d: Sum(rhs),rhsMax =   1.27857178725117E-03  1.30771421052121E-02
 cg2d: Sum(rhs),rhsMax =   1.27904656510524E-03  1.30772623127645E-02
 cg2d: Sum(rhs),rhsMax =   1.27952472405314E-03  1.30773822763658E-02
 cg2d: Sum(rhs),rhsMax =   1.27998983776942E-03  1.30775020174577E-02
 cg2d: Sum(rhs),rhsMax =   1.28044194499661E-03  1.30776215148666E-02
 cg2d: Sum(rhs),rhsMax =   1.28088084483256E-03  1.30777407851652E-02
 cg2d: Sum(rhs),rhsMax =   1.28132176158879E-03  1.30778598121501E-02
 cg2d: Sum(rhs),rhsMax =   1.28174892073306E-03  1.30779786167641E-02
 cg2d: Sum(rhs),rhsMax =   1.28216232266819E-03  1.30780971802652E-02
(PID.TID 0000.0001)      cg2d_init_res =   2.39442065589171E-03
(PID.TID 0000.0001)      cg2d_iters(min,last) =      -1     342
(PID.TID 0000.0001)      cg2d_last_res =   9.55526700590147E-08
(PID.TID 0000.0001) // =======================================================
(PID.TID 0000.0001) // Begin MONITOR dynamic field statistics
(PID.TID 0000.0001) // =======================================================
(PID.TID 0000.0001) %MON time_tsnumber                =                 13464
(PID.TID 0000.0001) %MON time_secondsf                =   1.6156800000000E+07
(PID.TID 0000.0001) %MON dynstat_eta_max              =   1.2130208153629E-01
(PID.TID 0000.0001) %MON dynstat_eta_min              =  -3.0097636382532E-01
(PID.TID 0000.0001) %MON dynstat_eta_mean             =  -7.9822058543989E-08
(PID.TID 0000.0001) %MON dynstat_eta_sd               =   1.0913648801074E-01
(PID.TID 0000.0001) %MON dynstat_eta_del2             =   6.5775569658765E-07
(PID.TID 0000.0001) %MON dynstat_uvel_max             =   1.1395292498554E-01
(PID.TID 0000.0001) %MON dynstat_uvel_min             =  -1.2101740480588E-01
(PID.TID 0000.0001) %MON dynstat_uvel_mean            =  -2.6517006188984E-08
(PID.TID 0000.0001) %MON dynstat_uvel_sd              =   4.5406069452372E-02
(PID.TID 0000.0001) %MON dynstat_uvel_del2            =   1.0002945760898E-06
(PID.TID 0000.0001) %MON dynstat_vvel_max             =   1.3113538149384E-01
(PID.TID 0000.0001) %MON dynstat_vvel_min             =  -1.0729570611554E-01
(PID.TID 0000.0001) %MON dynstat_vvel_mean            =  -4.5065634892432E-08
(PID.TID 0000.0001) %MON dynstat_vvel_sd              =   4.2321865963613E-02
(PID.TID 0000.0001) %MON dynstat_vvel_del2            =   1.2717812123706E-06
(PID.TID 0000.0001) %MON dynstat_wvel_max             =   8.7270819256082E-09
(PID.TID 0000.0001) %MON dynstat_wvel_min             =  -9.4896875414997E-09
(PID.TID 0000.0001) %MON dynstat_wvel_mean            =   4.5567311372460E-21
(PID.TID 0000.0001) %MON dynstat_wvel_sd              =   3.4096414883988E-09
(PID.TID 0000.0001) %MON dynstat_wvel_del2            =   3.7918742102816E-14
(PID.TID 0000.0001) %MON dynstat_theta_max            =   2.0000000000000E+01
(PID.TID 0000.0001) %MON dynstat_theta_min            =   2.0000000000000E+01
(PID.TID 0000.0001) %MON dynstat_theta_mean           =   1.9999999999999E+01
(PID.TID 0000.0001) %MON dynstat_theta_sd             =   1.1972645097557E-12
(PID.TID 0000.0001) %MON dynstat_theta_del2           =   0.0000000000000E+00
(PID.TID 0000.0001) %MON dynstat_salt_max             =   3.0000000000000E+01
(PID.TID 0000.0001) %MON dynstat_salt_min             =   3.0000000000000E+01
(PID.TID 0000.0001) %MON dynstat_salt_mean            =   2.9999999999998E+01
(PID.TID 0000.0001) %MON dynstat_salt_sd              =   2.1529444893531E-12
(PID.TID 0000.0001) %MON dynstat_salt_del2            =   0.0000000000000E+00
(PID.TID 0000.0001) %MON trAdv_CFL_u_max              =   2.9043304668246E-02
(PID.TID 0000.0001) %MON trAdv_CFL_v_max              =   3.1470980998260E-02
(PID.TID 0000.0001) %MON trAdv_CFL_w_max              =   2.2080909269278E-09
(PID.TID 0000.0001) %MON advcfl_uvel_max              =   2.9044177153411E-02
(PID.TID 0000.0001) %MON advcfl_vvel_max              =   3.1472491558523E-02
(PID.TID 0000.0001) %MON advcfl_wvel_max              =   4.5550500199199E-09
(PID.TID 0000.0001) %MON advcfl_W_hf_max              =   0.0000000000000E+00
(PID.TID 0000.0001) %MON pe_b_mean                    =   1.2186352188045E-05
(PID.TID 0000.0001) %MON ke_max                       =   8.6579007902168E-03
(PID.TID 0000.0001) %MON ke_mean                      =   1.9177541654784E-03
(PID.TID 0000.0001) %MON ke_vol                       =   7.2529629296391E+15
(PID.TID 0000.0001) %MON vort_r_min                   =  -4.1616567099497E-06
(PID.TID 0000.0001) %MON vort_r_max                   =   3.2799538499081E-06
(PID.TID 0000.0001) %MON vort_a_mean                  =   1.0615000000000E-04
(PID.TID 0000.0001) %MON vort_a_sd                    =   3.6281980563082E-06
(PID.TID 0000.0001) %MON vort_p_mean                  =   1.1210870169429E-04
(PID.TID 0000.0001) %MON vort_p_sd                    =   2.1066207229825E-05
(PID.TID 0000.0001) %MON surfExpan_theta_mean         =   9.1110670318887E-20
(PID.TID 0000.0001) %MON surfExpan_salt_mean          =   1.3667349176010E-19
(PID.TID 0000.0001) // =======================================================
(PID.TID 0000.0001) // End MONITOR dynamic field statistics
(PID.TID 0000.0001) // =======================================================
 cg2d: Sum(rhs),rhsMax =   1.28256175527068E-03  1.30782155111657E-02
 cg2d: Sum(rhs),rhsMax =   1.28294744267461E-03  1.30783336073642E-02
 cg2d: Sum(rhs),rhsMax =   1.28333358674842E-03  1.30784514666291E-02
 cg2d: Sum(rhs),rhsMax =   1.28370536686957E-03  1.30785691005533E-02
 cg2d: Sum(rhs),rhsMax =   1.28406292387461E-03  1.30786864926222E-02
 cg2d: Sum(rhs),rhsMax =   1.28440624394186E-03  1.30788036575504E-02
 cg2d: Sum(rhs),rhsMax =   1.28473542310180E-03  1.30789205831603E-02
 cg2d: Sum(rhs),rhsMax =   1.28506385698996E-03  1.30790372903298E-02
 cg2d: Sum(rhs),rhsMax =   1.28537783813163E-03  1.30791537489035E-02
 cg2d: Sum(rhs),rhsMax =   1.28567758958414E-03  1.30792699822374E-02
 cg2d: Sum(rhs),rhsMax =   1.28597665532651E-03  1.30793859816027E-02
 cg2d: Sum(rhs),rhsMax =   1.28626127445061E-03  1.30795017417442E-02
 cg2d: Sum(rhs),rhsMax =   1.28653177198592E-03  1.30796172683758E-02
 cg2d: Sum(rhs),rhsMax =   1.28678832308129E-03  1.30797325648047E-02
 cg2d: Sum(rhs),rhsMax =   1.28703119894835E-03  1.30798476262094E-02
 cg2d: Sum(rhs),rhsMax =   1.28727346672386E-03  1.30799624673018E-02
 cg2d: Sum(rhs),rhsMax =   1.28750223029449E-03  1.30800770616651E-02
 cg2d: Sum(rhs),rhsMax =   1.28771780283300E-03  1.30801914303246E-02
 cg2d: Sum(rhs),rhsMax =   1.28792058246799E-03  1.30803055586321E-02
 cg2d: Sum(rhs),rhsMax =   1.28811092314856E-03  1.30804194606533E-02
 cg2d: Sum(rhs),rhsMax =   1.28828934305321E-03  1.30805331237961E-02
 cg2d: Sum(rhs),rhsMax =   1.28846770945368E-03  1.30806465579654E-02
 cg2d: Sum(rhs),rhsMax =   1.28863463813783E-03  1.30807597595373E-02
 cg2d: Sum(rhs),rhsMax =   1.28879069556068E-03  1.30808727289858E-02
 cg2d: Sum(rhs),rhsMax =   1.28893636337886E-03  1.30809854673329E-02
 cg2d: Sum(rhs),rhsMax =   1.28907222253250E-03  1.30810979747070E-02
 cg2d: Sum(rhs),rhsMax =   1.28920982028987E-03  1.30812102462765E-02
 cg2d: Sum(rhs),rhsMax =   1.28933846070401E-03  1.30813222911992E-02
 cg2d: Sum(rhs),rhsMax =   1.28945884483590E-03  1.30814341000765E-02
 cg2d: Sum(rhs),rhsMax =   1.28957153711236E-03  1.30815456793900E-02
 cg2d: Sum(rhs),rhsMax =   1.28967724046167E-03  1.30816570277175E-02
 cg2d: Sum(rhs),rhsMax =   1.28977658049366E-03  1.30817681433556E-02
 cg2d: Sum(rhs),rhsMax =   1.28987024862235E-03  1.30818790286428E-02
 cg2d: Sum(rhs),rhsMax =   1.28995895689500E-03  1.30819896813382E-02
 cg2d: Sum(rhs),rhsMax =   1.29004344703963E-03  1.30821001033192E-02
 cg2d: Sum(rhs),rhsMax =   1.29013487930959E-03  1.30822102903631E-02
 cg2d: Sum(rhs),rhsMax =   1.29022348021125E-03  1.30823202459582E-02
 cg2d: Sum(rhs),rhsMax =   1.29030991443757E-03  1.30824299779309E-02
 cg2d: Sum(rhs),rhsMax =   1.29039493840487E-03  1.30825394743119E-02
 cg2d: Sum(rhs),rhsMax =   1.29047930004674E-03  1.30826487462580E-02
 cg2d: Sum(rhs),rhsMax =   1.29056377157978E-03  1.30827577816843E-02
 cg2d: Sum(rhs),rhsMax =   1.29064911976101E-03  1.30828665865023E-02
 cg2d: Sum(rhs),rhsMax =   1.29073606948058E-03  1.30829751605814E-02
 cg2d: Sum(rhs),rhsMax =   1.29082539908015E-03  1.30830835094196E-02
 cg2d: Sum(rhs),rhsMax =   1.29091783608084E-03  1.30831916219341E-02
 cg2d: Sum(rhs),rhsMax =   1.29101411964362E-03  1.30832995050124E-02
 cg2d: Sum(rhs),rhsMax =   1.29110430673277E-03  1.30834071702303E-02
 cg2d: Sum(rhs),rhsMax =   1.29119964419277E-03  1.30835145929972E-02
 cg2d: Sum(rhs),rhsMax =   1.29130081038117E-03  1.30836217906083E-02
 cg2d: Sum(rhs),rhsMax =   1.29140848476301E-03  1.30837287501155E-02
 cg2d: Sum(rhs),rhsMax =   1.29152333729011E-03  1.30838354907735E-02
 cg2d: Sum(rhs),rhsMax =   1.29164603576040E-03  1.30839419958478E-02
 cg2d: Sum(rhs),rhsMax =   1.29177715465025E-03  1.30840482751933E-02
 cg2d: Sum(rhs),rhsMax =   1.29191738286311E-03  1.30841543189934E-02
 cg2d: Sum(rhs),rhsMax =   1.29206723488772E-03  1.30842601417930E-02
 cg2d: Sum(rhs),rhsMax =   1.29221597256562E-03  1.30843657319724E-02
 cg2d: Sum(rhs),rhsMax =   1.29237514315708E-03  1.30844710942765E-02
 cg2d: Sum(rhs),rhsMax =   1.29254535414902E-03  1.30845762248061E-02
 cg2d: Sum(rhs),rhsMax =   1.29272702454860E-03  1.30846811296592E-02
 cg2d: Sum(rhs),rhsMax =   1.29292068837206E-03  1.30847858018145E-02
 cg2d: Sum(rhs),rhsMax =   1.29311481183918E-03  1.30848902456292E-02
 cg2d: Sum(rhs),rhsMax =   1.29332140424868E-03  1.30849944656505E-02
 cg2d: Sum(rhs),rhsMax =   1.29354085063116E-03  1.30850984529475E-02
 cg2d: Sum(rhs),rhsMax =   1.29377349645916E-03  1.30852022148274E-02
 cg2d: Sum(rhs),rhsMax =   1.29401969738248E-03  1.30853057450578E-02
 cg2d: Sum(rhs),rhsMax =   1.29427976530832E-03  1.30854090517750E-02
 cg2d: Sum(rhs),rhsMax =   1.29454073825677E-03  1.30855121218316E-02
 cg2d: Sum(rhs),rhsMax =   1.29481560007567E-03  1.30856149731237E-02
 cg2d: Sum(rhs),rhsMax =   1.29510472502010E-03  1.30857175924124E-02
 cg2d: Sum(rhs),rhsMax =   1.29540826972548E-03  1.30858199856707E-02
 cg2d: Sum(rhs),rhsMax =   1.29571277673141E-03  1.30859221420186E-02
 cg2d: Sum(rhs),rhsMax =   1.29603160059020E-03  1.30860240823827E-02
(PID.TID 0000.0001)      cg2d_init_res =   2.37303524904442E-03
(PID.TID 0000.0001)      cg2d_iters(min,last) =      -1     340
(PID.TID 0000.0001)      cg2d_last_res =   9.84812142592385E-08
(PID.TID 0000.0001) // =======================================================
(PID.TID 0000.0001) // Begin MONITOR dynamic field statistics
(PID.TID 0000.0001) // =======================================================
(PID.TID 0000.0001) %MON time_tsnumber                =                 13536
(PID.TID 0000.0001) %MON time_secondsf                =   1.6243200000000E+07
(PID.TID 0000.0001) %MON dynstat_eta_max              =   1.2181821378808E-01
(PID.TID 0000.0001) %MON dynstat_eta_min              =  -3.0177513105780E-01
(PID.TID 0000.0001) %MON dynstat_eta_mean             =  -8.0729915916173E-08
(PID.TID 0000.0001) %MON dynstat_eta_sd               =   1.0936040287399E-01
(PID.TID 0000.0001) %MON dynstat_eta_del2             =   6.5948120973822E-07
(PID.TID 0000.0001) %MON dynstat_uvel_max             =   1.1408210163851E-01
(PID.TID 0000.0001) %MON dynstat_uvel_min             =  -1.2127912735635E-01
(PID.TID 0000.0001) %MON dynstat_uvel_mean            =  -1.6748064811747E-08
(PID.TID 0000.0001) %MON dynstat_uvel_sd              =   4.5485007794623E-02
(PID.TID 0000.0001) %MON dynstat_uvel_del2            =   1.0021087619848E-06
(PID.TID 0000.0001) %MON dynstat_vvel_max             =   1.3158602062040E-01
(PID.TID 0000.0001) %MON dynstat_vvel_min             =  -1.0756654581058E-01
(PID.TID 0000.0001) %MON dynstat_vvel_mean            =  -3.9822156487903E-08
(PID.TID 0000.0001) %MON dynstat_vvel_sd              =   4.2454939676561E-02
(PID.TID 0000.0001) %MON dynstat_vvel_del2            =   1.2754434577959E-06
(PID.TID 0000.0001) %MON dynstat_wvel_max             =   8.2524674944580E-09
(PID.TID 0000.0001) %MON dynstat_wvel_min             =  -9.3904483783990E-09
(PID.TID 0000.0001) %MON dynstat_wvel_mean            =   1.8277298390993E-20
(PID.TID 0000.0001) %MON dynstat_wvel_sd              =   3.3659576053861E-09
(PID.TID 0000.0001) %MON dynstat_wvel_del2            =   3.7753486918277E-14
(PID.TID 0000.0001) %MON dynstat_theta_max            =   2.0000000000000E+01
(PID.TID 0000.0001) %MON dynstat_theta_min            =   2.0000000000000E+01
(PID.TID 0000.0001) %MON dynstat_theta_mean           =   1.9999999999999E+01
(PID.TID 0000.0001) %MON dynstat_theta_sd             =   1.1972645097557E-12
(PID.TID 0000.0001) %MON dynstat_theta_del2           =   0.0000000000000E+00
(PID.TID 0000.0001) %MON dynstat_salt_max             =   3.0000000000000E+01
(PID.TID 0000.0001) %MON dynstat_salt_min             =   3.0000000000000E+01
(PID.TID 0000.0001) %MON dynstat_salt_mean            =   2.9999999999998E+01
(PID.TID 0000.0001) %MON dynstat_salt_sd              =   2.1529444893531E-12
(PID.TID 0000.0001) %MON dynstat_salt_del2            =   0.0000000000000E+00
(PID.TID 0000.0001) %MON trAdv_CFL_u_max              =   2.9106119193057E-02
(PID.TID 0000.0001) %MON trAdv_CFL_v_max              =   3.1579151380193E-02
(PID.TID 0000.0001) %MON trAdv_CFL_w_max              =   2.0830932555477E-09
(PID.TID 0000.0001) %MON advcfl_uvel_max              =   2.9106990565524E-02
(PID.TID 0000.0001) %MON advcfl_vvel_max              =   3.1580644948896E-02
(PID.TID 0000.0001) %MON advcfl_wvel_max              =   4.5074152216315E-09
(PID.TID 0000.0001) %MON advcfl_W_hf_max              =   0.0000000000000E+00
(PID.TID 0000.0001) %MON pe_b_mean                    =   1.2236408858732E-05
(PID.TID 0000.0001) %MON ke_max                       =   8.7178139456992E-03
(PID.TID 0000.0001) %MON ke_mean                      =   1.9269408035693E-03
(PID.TID 0000.0001) %MON ke_vol                       =   7.2529629296391E+15
(PID.TID 0000.0001) %MON vort_r_min                   =  -4.1645135767113E-06
(PID.TID 0000.0001) %MON vort_r_max                   =   3.2957315774426E-06
(PID.TID 0000.0001) %MON vort_a_mean                  =   1.0615000000000E-04
(PID.TID 0000.0001) %MON vort_a_sd                    =   3.6285213292603E-06
(PID.TID 0000.0001) %MON vort_p_mean                  =   1.1210870169429E-04
(PID.TID 0000.0001) %MON vort_p_sd                    =   2.1066304860956E-05
(PID.TID 0000.0001) %MON surfExpan_theta_mean         =   3.6549232482563E-19
(PID.TID 0000.0001) %MON surfExpan_salt_mean          =   5.4823116060305E-19
(PID.TID 0000.0001) // =======================================================
(PID.TID 0000.0001) // End MONITOR dynamic field statistics
(PID.TID 0000.0001) // =======================================================
 cg2d: Sum(rhs),rhsMax =   1.29636489552594E-03  1.30861257912329E-02
 cg2d: Sum(rhs),rhsMax =   1.29671265305214E-03  1.30862272748264E-02
 cg2d: Sum(rhs),rhsMax =   1.29706114595760E-03  1.30863285280748E-02
 cg2d: Sum(rhs),rhsMax =   1.29742392595550E-03  1.30864295565134E-02
 cg2d: Sum(rhs),rhsMax =   1.29780102694394E-03  1.30865303606641E-02
 cg2d: Sum(rhs),rhsMax =   1.29819251109214E-03  1.30866309339148E-02
 cg2d: Sum(rhs),rhsMax =   1.29858355953260E-03  1.30867312792078E-02
 cg2d: Sum(rhs),rhsMax =   1.29898849878574E-03  1.30868314056245E-02
 cg2d: Sum(rhs),rhsMax =   1.29940737715343E-03  1.30869313007675E-02
 cg2d: Sum(rhs),rhsMax =   1.29984011492937E-03  1.30870309735759E-02
 cg2d: Sum(rhs),rhsMax =   1.30027120471400E-03  1.30871304171489E-02
 cg2d: Sum(rhs),rhsMax =   1.30071550565006E-03  1.30872296375762E-02
 cg2d: Sum(rhs),rhsMax =   1.30117313143582E-03  1.30873286272311E-02
 cg2d: Sum(rhs),rhsMax =   1.30162805099416E-03  1.30874273937651E-02
 cg2d: Sum(rhs),rhsMax =   1.30209546772753E-03  1.30875259380185E-02
 cg2d: Sum(rhs),rhsMax =   1.30257542732991E-03  1.30876242522995E-02
 cg2d: Sum(rhs),rhsMax =   1.30305103398117E-03  1.30877223366406E-02
 cg2d: Sum(rhs),rhsMax =   1.30353831171715E-03  1.30878202034187E-02
 cg2d: Sum(rhs),rhsMax =   1.30403727150019E-03  1.30879178390680E-02
 cg2d: Sum(rhs),rhsMax =   1.30454768973540E-03  1.30880152537100E-02
 cg2d: Sum(rhs),rhsMax =   1.30505089166381E-03  1.30881124440524E-02
 cg2d: Sum(rhs),rhsMax =   1.30552698052605E-03  1.30882094017639E-02
 cg2d: Sum(rhs),rhsMax =   1.30599303526285E-03  1.30883061371520E-02
 cg2d: Sum(rhs),rhsMax =   1.30642838858416E-03  1.30884026533478E-02
 cg2d: Sum(rhs),rhsMax =   1.30685211803028E-03  1.30884989522047E-02
 cg2d: Sum(rhs),rhsMax =   1.30728271821276E-03  1.30885950138888E-02
 cg2d: Sum(rhs),rhsMax =   1.30772015813608E-03  1.30886908594553E-02
 cg2d: Sum(rhs),rhsMax =   1.30816424198604E-03  1.30887864725299E-02
 cg2d: Sum(rhs),rhsMax =   1.30859469860700E-03  1.30888818694357E-02
 cg2d: Sum(rhs),rhsMax =   1.30903101526522E-03  1.30889770412873E-02
 cg2d: Sum(rhs),rhsMax =   1.30947326998487E-03  1.30890719872969E-02
 cg2d: Sum(rhs),rhsMax =   1.30992108101999E-03  1.30891667140682E-02
 cg2d: Sum(rhs),rhsMax =   1.31037457406752E-03  1.30892612151753E-02
 cg2d: Sum(rhs),rhsMax =   1.31081235605315E-03  1.30893554926342E-02
 cg2d: Sum(rhs),rhsMax =   1.31125502913601E-03  1.30894495510365E-02
 cg2d: Sum(rhs),rhsMax =   1.31153766636404E-03  1.30895433764256E-02
 cg2d: Sum(rhs),rhsMax =   1.31177636719334E-03  1.30896370037658E-02
 cg2d: Sum(rhs),rhsMax =   1.31201661572788E-03  1.30897303846679E-02
 cg2d: Sum(rhs),rhsMax =   1.31225834003988E-03  1.30898235492413E-02
 cg2d: Sum(rhs),rhsMax =   1.31250148626921E-03  1.30899164863565E-02
 cg2d: Sum(rhs),rhsMax =   1.31274603062288E-03  1.30900092068899E-02
 cg2d: Sum(rhs),rhsMax =   1.31299174399809E-03  1.30901017019573E-02
 cg2d: Sum(rhs),rhsMax =   1.31323882894303E-03  1.30901939750486E-02
 cg2d: Sum(rhs),rhsMax =   1.31348721317165E-03  1.30902860256247E-02
 cg2d: Sum(rhs),rhsMax =   1.31373681412007E-03  1.30903778581065E-02
 cg2d: Sum(rhs),rhsMax =   1.31398746195676E-03  1.30904694645091E-02
 cg2d: Sum(rhs),rhsMax =   1.31423931894537E-03  1.30905608521358E-02
 cg2d: Sum(rhs),rhsMax =   1.31449228840317E-03  1.30906520175620E-02
 cg2d: Sum(rhs),rhsMax =   1.31474638294955E-03  1.30907429628420E-02
 cg2d: Sum(rhs),rhsMax =   1.31500148323900E-03  1.30908336861480E-02
 cg2d: Sum(rhs),rhsMax =   1.31525758727476E-03  1.30909241881996E-02
 cg2d: Sum(rhs),rhsMax =   1.31549318433197E-03  1.30910144682551E-02
 cg2d: Sum(rhs),rhsMax =   1.31572951285318E-03  1.30911045287134E-02
 cg2d: Sum(rhs),rhsMax =   1.31596673679017E-03  1.30911943680953E-02
 cg2d: Sum(rhs),rhsMax =   1.31620450979389E-03  1.30912839857539E-02
 cg2d: Sum(rhs),rhsMax =   1.31644320315962E-03  1.30913733876102E-02
 cg2d: Sum(rhs),rhsMax =   1.31668248901158E-03  1.30914625684661E-02
 cg2d: Sum(rhs),rhsMax =   1.31692260473209E-03  1.30915515265242E-02
 cg2d: Sum(rhs),rhsMax =   1.31716341140995E-03  1.30916402666302E-02
 cg2d: Sum(rhs),rhsMax =   1.31740482731776E-03  1.30917287830780E-02
 cg2d: Sum(rhs),rhsMax =   1.31764694669023E-03  1.30918170868620E-02
 cg2d: Sum(rhs),rhsMax =   1.31788960023547E-03  1.30919051711358E-02
 cg2d: Sum(rhs),rhsMax =   1.31813293288457E-03  1.30919930324827E-02
 cg2d: Sum(rhs),rhsMax =   1.31837683923514E-03  1.30920806738197E-02
 cg2d: Sum(rhs),rhsMax =   1.31862133549228E-03  1.30921680995216E-02
 cg2d: Sum(rhs),rhsMax =   1.31886638172147E-03  1.30922553028179E-02
 cg2d: Sum(rhs),rhsMax =   1.31911195782369E-03  1.30923422914439E-02
 cg2d: Sum(rhs),rhsMax =   1.31935806487855E-03  1.30924290549555E-02
 cg2d: Sum(rhs),rhsMax =   1.31960451695008E-03  1.30925156044311E-02
 cg2d: Sum(rhs),rhsMax =   1.31985161225647E-03  1.30926019341491E-02
 cg2d: Sum(rhs),rhsMax =   1.32009920562470E-03  1.30926880471073E-02
 cg2d: Sum(rhs),rhsMax =   1.32034729303849E-03  1.30927739380294E-02
(PID.TID 0000.0001)      cg2d_init_res =   2.34897715592899E-03
(PID.TID 0000.0001)      cg2d_iters(min,last) =      -1     363
(PID.TID 0000.0001)      cg2d_last_res =   9.94456497243361E-08
(PID.TID 0000.0001) // =======================================================
(PID.TID 0000.0001) // Begin MONITOR dynamic field statistics
(PID.TID 0000.0001) // =======================================================
(PID.TID 0000.0001) %MON time_tsnumber                =                 13608
(PID.TID 0000.0001) %MON time_secondsf                =   1.6329600000000E+07
(PID.TID 0000.0001) %MON dynstat_eta_max              =   1.2232588313119E-01
(PID.TID 0000.0001) %MON dynstat_eta_min              =  -3.0256616249419E-01
(PID.TID 0000.0001) %MON dynstat_eta_mean             =  -8.2281193678650E-08
(PID.TID 0000.0001) %MON dynstat_eta_sd               =   1.0958073986271E-01
(PID.TID 0000.0001) %MON dynstat_eta_del2             =   6.6117690702292E-07
(PID.TID 0000.0001) %MON dynstat_uvel_max             =   1.1422543158560E-01
(PID.TID 0000.0001) %MON dynstat_uvel_min             =  -1.2153685407799E-01
(PID.TID 0000.0001) %MON dynstat_uvel_mean            =  -6.6291085180302E-09
(PID.TID 0000.0001) %MON dynstat_uvel_sd              =   4.5562788950509E-02
(PID.TID 0000.0001) %MON dynstat_uvel_del2            =   1.0039219442313E-06
(PID.TID 0000.0001) %MON dynstat_vvel_max             =   1.3203125075633E-01
(PID.TID 0000.0001) %MON dynstat_vvel_min             =  -1.0785494374331E-01
(PID.TID 0000.0001) %MON dynstat_vvel_mean            =  -3.6260108925679E-08
(PID.TID 0000.0001) %MON dynstat_vvel_sd              =   4.2587144666303E-02
(PID.TID 0000.0001) %MON dynstat_vvel_del2            =   1.2786804623652E-06
(PID.TID 0000.0001) %MON dynstat_wvel_max             =   7.7308688685298E-09
(PID.TID 0000.0001) %MON dynstat_wvel_min             =  -9.2966063437052E-09
(PID.TID 0000.0001) %MON dynstat_wvel_mean            =  -9.7840513382833E-21
(PID.TID 0000.0001) %MON dynstat_wvel_sd              =   3.3303106095607E-09
(PID.TID 0000.0001) %MON dynstat_wvel_del2            =   3.7447584093669E-14
(PID.TID 0000.0001) %MON dynstat_theta_max            =   2.0000000000000E+01
(PID.TID 0000.0001) %MON dynstat_theta_min            =   2.0000000000000E+01
(PID.TID 0000.0001) %MON dynstat_theta_mean           =   1.9999999999999E+01
(PID.TID 0000.0001) %MON dynstat_theta_sd             =   1.1972645097557E-12
(PID.TID 0000.0001) %MON dynstat_theta_del2           =   0.0000000000000E+00
(PID.TID 0000.0001) %MON dynstat_salt_max             =   3.0000000000000E+01
(PID.TID 0000.0001) %MON dynstat_salt_min             =   3.0000000000000E+01
(PID.TID 0000.0001) %MON dynstat_salt_mean            =   2.9999999999998E+01
(PID.TID 0000.0001) %MON dynstat_salt_sd              =   2.1529444893531E-12
(PID.TID 0000.0001) %MON dynstat_salt_del2            =   0.0000000000000E+00
(PID.TID 0000.0001) %MON trAdv_CFL_u_max              =   2.9167997705252E-02
(PID.TID 0000.0001) %MON trAdv_CFL_v_max              =   3.1686025568398E-02
(PID.TID 0000.0001) %MON trAdv_CFL_w_max              =   1.9483111250540E-09
(PID.TID 0000.0001) %MON advcfl_uvel_max              =   2.9168844978718E-02
(PID.TID 0000.0001) %MON advcfl_vvel_max              =   3.1687500181519E-02
(PID.TID 0000.0001) %MON advcfl_wvel_max              =   4.4623710449785E-09
(PID.TID 0000.0001) %MON advcfl_W_hf_max              =   0.0000000000000E+00
(PID.TID 0000.0001) %MON pe_b_mean                    =   1.2285765837413E-05
(PID.TID 0000.0001) %MON ke_max                       =   8.7771318768302E-03
(PID.TID 0000.0001) %MON ke_mean                      =   1.9360619555205E-03
(PID.TID 0000.0001) %MON ke_vol                       =   7.2529629296391E+15
(PID.TID 0000.0001) %MON vort_r_min                   =  -4.1669713988126E-06
(PID.TID 0000.0001) %MON vort_r_max                   =   3.3103191095182E-06
(PID.TID 0000.0001) %MON vort_a_mean                  =   1.0615000000000E-04
(PID.TID 0000.0001) %MON vort_a_sd                    =   3.6288395434570E-06
(PID.TID 0000.0001) %MON vort_p_mean                  =   1.1210870169429E-04
(PID.TID 0000.0001) %MON vort_p_sd                    =   2.1066402178633E-05
(PID.TID 0000.0001) %MON surfExpan_theta_mean         =  -1.9570402157991E-19
(PID.TID 0000.0001) %MON surfExpan_salt_mean          =  -2.9354585961842E-19
(PID.TID 0000.0001) // =======================================================
(PID.TID 0000.0001) // End MONITOR dynamic field statistics
(PID.TID 0000.0001) // =======================================================
 cg2d: Sum(rhs),rhsMax =   1.32059584213773E-03  1.30928596162580E-02
 cg2d: Sum(rhs),rhsMax =   1.32084484226854E-03  1.30929450724057E-02
 cg2d: Sum(rhs),rhsMax =   1.32109430021420E-03  1.30930303175156E-02
 cg2d: Sum(rhs),rhsMax =   1.32134411487490E-03  1.30931153445399E-02
 cg2d: Sum(rhs),rhsMax =   1.32154456657628E-03  1.30932001291007E-02
 cg2d: Sum(rhs),rhsMax =   1.32174528384474E-03  1.30932847184020E-02
 cg2d: Sum(rhs),rhsMax =   1.32194627160414E-03  1.30933690924294E-02
 cg2d: Sum(rhs),rhsMax =   1.32214751655754E-03  1.30934532484860E-02
 cg2d: Sum(rhs),rhsMax =   1.32234897938112E-03  1.30935371867066E-02
 cg2d: Sum(rhs),rhsMax =   1.32255067346392E-03  1.30936209080658E-02
 cg2d: Sum(rhs),rhsMax =   1.32275263603974E-03  1.30937044169923E-02
 cg2d: Sum(rhs),rhsMax =   1.32295484439555E-03  1.30937877063497E-02
 cg2d: Sum(rhs),rhsMax =   1.32315729119560E-03  1.30938707811012E-02
 cg2d: Sum(rhs),rhsMax =   1.32336000541290E-03  1.30939536376950E-02
 cg2d: Sum(rhs),rhsMax =   1.32356293747341E-03  1.30940362807338E-02
 cg2d: Sum(rhs),rhsMax =   1.32376608890802E-03  1.30941187063721E-02
 cg2d: Sum(rhs),rhsMax =   1.32396944713435E-03  1.30942009192074E-02
 cg2d: Sum(rhs),rhsMax =   1.32417295970294E-03  1.30942829175921E-02
 cg2d: Sum(rhs),rhsMax =   1.32437672081318E-03  1.30943646976974E-02
 cg2d: Sum(rhs),rhsMax =   1.32458065383272E-03  1.30944462622273E-02
 cg2d: Sum(rhs),rhsMax =   1.32478482431701E-03  1.30945276148010E-02
 cg2d: Sum(rhs),rhsMax =   1.32498922966118E-03  1.30946087515382E-02
 cg2d: Sum(rhs),rhsMax =   1.32519378541679E-03  1.30946896749911E-02
 cg2d: Sum(rhs),rhsMax =   1.32539856198632E-03  1.30947703819198E-02
 cg2d: Sum(rhs),rhsMax =   1.32560343691325E-03  1.30948508774477E-02
 cg2d: Sum(rhs),rhsMax =   1.32580856805232E-03  1.30949311550133E-02
 cg2d: Sum(rhs),rhsMax =   1.32601382606175E-03  1.30950112204086E-02
 cg2d: Sum(rhs),rhsMax =   1.32621929994063E-03  1.30950910713163E-02
 cg2d: Sum(rhs),rhsMax =   1.32642492071803E-03  1.30951707107502E-02
 cg2d: Sum(rhs),rhsMax =   1.32663065599760E-03  1.30952501350400E-02
 cg2d: Sum(rhs),rhsMax =   1.32683660348394E-03  1.30953293477921E-02
 cg2d: Sum(rhs),rhsMax =   1.32704267721158E-03  1.30954083448070E-02
 cg2d: Sum(rhs),rhsMax =   1.32724896480052E-03  1.30954871318287E-02
 cg2d: Sum(rhs),rhsMax =   1.32745537211185E-03  1.30955657039104E-02
 cg2d: Sum(rhs),rhsMax =   1.32766195874094E-03  1.30956440662733E-02
 cg2d: Sum(rhs),rhsMax =   1.32786869077000E-03  1.30957222103244E-02
 cg2d: Sum(rhs),rhsMax =   1.32807554614473E-03  1.30958001464656E-02
 cg2d: Sum(rhs),rhsMax =   1.32828257465185E-03  1.30958778685072E-02
 cg2d: Sum(rhs),rhsMax =   1.32848975653565E-03  1.30959553806369E-02
 cg2d: Sum(rhs),rhsMax =   1.32869711511729E-03  1.30960326793866E-02
 cg2d: Sum(rhs),rhsMax =   1.32890459313380E-03  1.30961097695242E-02
 cg2d: Sum(rhs),rhsMax =   1.32911221384967E-03  1.30961866432149E-02
 cg2d: Sum(rhs),rhsMax =   1.32931985294999E-03  1.30962633093126E-02
 cg2d: Sum(rhs),rhsMax =   1.32952775037230E-03  1.30963397617930E-02
 cg2d: Sum(rhs),rhsMax =   1.32973574132783E-03  1.30964160048537E-02
 cg2d: Sum(rhs),rhsMax =   1.32994389138181E-03  1.30964920339285E-02
 cg2d: Sum(rhs),rhsMax =   1.33015221108784E-03  1.30965678547423E-02
 cg2d: Sum(rhs),rhsMax =   1.33036061646233E-03  1.30966434630289E-02
 cg2d: Sum(rhs),rhsMax =   1.33056919837248E-03  1.30967188633727E-02
 cg2d: Sum(rhs),rhsMax =   1.33077784547334E-03  1.30967940516449E-02
 cg2d: Sum(rhs),rhsMax =   1.33098658133809E-03  1.30968690328475E-02
 cg2d: Sum(rhs),rhsMax =   1.33119550664915E-03  1.30969438013902E-02
 cg2d: Sum(rhs),rhsMax =   1.33140454822625E-03  1.30970183620578E-02
 cg2d: Sum(rhs),rhsMax =   1.33161371920350E-03  1.30970927119012E-02
 cg2d: Sum(rhs),rhsMax =   1.33182302108866E-03  1.30971668545164E-02
 cg2d: Sum(rhs),rhsMax =   1.33203247018840E-03  1.30972407844087E-02
 cg2d: Sum(rhs),rhsMax =   1.33224198056977E-03  1.30973145088895E-02
 cg2d: Sum(rhs),rhsMax =   1.33245163740594E-03  1.30973880189090E-02
 cg2d: Sum(rhs),rhsMax =   1.33266134721010E-03  1.30974613224043E-02
 cg2d: Sum(rhs),rhsMax =   1.33287123227473E-03  1.30975344179028E-02
 cg2d: Sum(rhs),rhsMax =   1.33308119023006E-03  1.30976073054496E-02
 cg2d: Sum(rhs),rhsMax =   1.33329128552581E-03  1.30976799828779E-02
 cg2d: Sum(rhs),rhsMax =   1.33350154324405E-03  1.30977524549099E-02
 cg2d: Sum(rhs),rhsMax =   1.33371187402827E-03  1.30978247170270E-02
 cg2d: Sum(rhs),rhsMax =   1.33392232792874E-03  1.30978967721438E-02
 cg2d: Sum(rhs),rhsMax =   1.33413286654719E-03  1.30979686195255E-02
 cg2d: Sum(rhs),rhsMax =   1.33434351914834E-03  1.30980402637084E-02
 cg2d: Sum(rhs),rhsMax =   1.33455428728807E-03  1.30981116956718E-02
 cg2d: Sum(rhs),rhsMax =   1.33476519929462E-03  1.30981829203510E-02
 cg2d: Sum(rhs),rhsMax =   1.33497620895157E-03  1.30982539378411E-02
 cg2d: Sum(rhs),rhsMax =   1.33518727304711E-03  1.30983247551855E-02
 cg2d: Sum(rhs),rhsMax =   1.33537648743975E-03  1.30983953527076E-02
(PID.TID 0000.0001)      cg2d_init_res =   2.32344004986900E-03
(PID.TID 0000.0001)      cg2d_iters(min,last) =      -1     366
(PID.TID 0000.0001)      cg2d_last_res =   9.20161205199491E-08
(PID.TID 0000.0001) // =======================================================
(PID.TID 0000.0001) // Begin MONITOR dynamic field statistics
(PID.TID 0000.0001) // =======================================================
(PID.TID 0000.0001) %MON time_tsnumber                =                 13680
(PID.TID 0000.0001) %MON time_secondsf                =   1.6416000000000E+07
(PID.TID 0000.0001) %MON dynstat_eta_max              =   1.2281700072594E-01
(PID.TID 0000.0001) %MON dynstat_eta_min              =  -3.0334919014359E-01
(PID.TID 0000.0001) %MON dynstat_eta_mean             =  -8.3249542686202E-08
(PID.TID 0000.0001) %MON dynstat_eta_sd               =   1.0979761838519E-01
(PID.TID 0000.0001) %MON dynstat_eta_del2             =   6.6283851850957E-07
(PID.TID 0000.0001) %MON dynstat_uvel_max             =   1.1438958417016E-01
(PID.TID 0000.0001) %MON dynstat_uvel_min             =  -1.2178747978851E-01
(PID.TID 0000.0001) %MON dynstat_uvel_mean            =   3.2324312849299E-09
(PID.TID 0000.0001) %MON dynstat_uvel_sd              =   4.5640579367382E-02
(PID.TID 0000.0001) %MON dynstat_uvel_del2            =   1.0057518127341E-06
(PID.TID 0000.0001) %MON dynstat_vvel_max             =   1.3247056995908E-01
(PID.TID 0000.0001) %MON dynstat_vvel_min             =  -1.0816059590986E-01
(PID.TID 0000.0001) %MON dynstat_vvel_mean            =  -3.4386812004695E-08
(PID.TID 0000.0001) %MON dynstat_vvel_sd              =   4.2717201718245E-02
(PID.TID 0000.0001) %MON dynstat_vvel_del2            =   1.2814420964922E-06
(PID.TID 0000.0001) %MON dynstat_wvel_max             =   7.1795441396534E-09
(PID.TID 0000.0001) %MON dynstat_wvel_min             =  -9.2064909148030E-09
(PID.TID 0000.0001) %MON dynstat_wvel_mean            =  -4.5594733616106E-21
(PID.TID 0000.0001) %MON dynstat_wvel_sd              =   3.3021921576496E-09
(PID.TID 0000.0001) %MON dynstat_wvel_del2            =   3.6774754241463E-14
(PID.TID 0000.0001) %MON dynstat_theta_max            =   2.0000000000000E+01
(PID.TID 0000.0001) %MON dynstat_theta_min            =   2.0000000000000E+01
(PID.TID 0000.0001) %MON dynstat_theta_mean           =   1.9999999999999E+01
(PID.TID 0000.0001) %MON dynstat_theta_sd             =   1.1972645097557E-12
(PID.TID 0000.0001) %MON dynstat_theta_del2           =   0.0000000000000E+00
(PID.TID 0000.0001) %MON dynstat_salt_max             =   3.0000000000000E+01
(PID.TID 0000.0001) %MON dynstat_salt_min             =   3.0000000000000E+01
(PID.TID 0000.0001) %MON dynstat_salt_mean            =   2.9999999999998E+01
(PID.TID 0000.0001) %MON dynstat_salt_sd              =   2.1529444893531E-12
(PID.TID 0000.0001) %MON dynstat_salt_del2            =   0.0000000000000E+00
(PID.TID 0000.0001) %MON trAdv_CFL_u_max              =   2.9228171107779E-02
(PID.TID 0000.0001) %MON trAdv_CFL_v_max              =   3.1791482494652E-02
(PID.TID 0000.0001) %MON trAdv_CFL_w_max              =   1.8065201333568E-09
(PID.TID 0000.0001) %MON advcfl_uvel_max              =   2.9228995149242E-02
(PID.TID 0000.0001) %MON advcfl_vvel_max              =   3.1792936790178E-02
(PID.TID 0000.0001) %MON advcfl_wvel_max              =   4.4191156391054E-09
(PID.TID 0000.0001) %MON advcfl_W_hf_max              =   0.0000000000000E+00
(PID.TID 0000.0001) %MON pe_b_mean                    =   1.2334445112782E-05
(PID.TID 0000.0001) %MON ke_max                       =   8.8357510773078E-03
(PID.TID 0000.0001) %MON ke_mean                      =   1.9451156072352E-03
(PID.TID 0000.0001) %MON ke_vol                       =   7.2529629296391E+15
(PID.TID 0000.0001) %MON vort_r_min                   =  -4.1690445551634E-06
(PID.TID 0000.0001) %MON vort_r_max                   =   3.3234492462395E-06
(PID.TID 0000.0001) %MON vort_a_mean                  =   1.0615000000000E-04
(PID.TID 0000.0001) %MON vort_a_sd                    =   3.6291521928760E-06
(PID.TID 0000.0001) %MON vort_p_mean                  =   1.1210870169429E-04
(PID.TID 0000.0001) %MON vort_p_sd                    =   2.1066497847960E-05
(PID.TID 0000.0001) %MON surfExpan_theta_mean         =  -9.1237500879247E-20
(PID.TID 0000.0001) %MON surfExpan_salt_mean          =  -1.3684959159517E-19
(PID.TID 0000.0001) // =======================================================
(PID.TID 0000.0001) // End MONITOR dynamic field statistics
(PID.TID 0000.0001) // =======================================================
 cg2d: Sum(rhs),rhsMax =   1.33556577632092E-03  1.30984657533318E-02
 cg2d: Sum(rhs),rhsMax =   1.33575514168871E-03  1.30985359444291E-02
 cg2d: Sum(rhs),rhsMax =   1.33594463326103E-03  1.30986059338270E-02
 cg2d: Sum(rhs),rhsMax =   1.33613421789012E-03  1.30986757118510E-02
 cg2d: Sum(rhs),rhsMax =   1.33632389186613E-03  1.30987452887172E-02
 cg2d: Sum(rhs),rhsMax =   1.33651366028809E-03  1.30988146551943E-02
 cg2d: Sum(rhs),rhsMax =   1.33670351032017E-03  1.30988838219527E-02
 cg2d: Sum(rhs),rhsMax =   1.33689349313879E-03  1.30989527772719E-02
 cg2d: Sum(rhs),rhsMax =   1.33708354327468E-03  1.30990215334163E-02
 cg2d: Sum(rhs),rhsMax =   1.33727367954989E-03  1.30990900801324E-02
 cg2d: Sum(rhs),rhsMax =   1.33746392078658E-03  1.30991584264235E-02
 cg2d: Sum(rhs),rhsMax =   1.33765427692493E-03  1.30992265608403E-02
 cg2d: Sum(rhs),rhsMax =   1.33784472989421E-03  1.30992944985138E-02
 cg2d: Sum(rhs),rhsMax =   1.33803523626820E-03  1.30993622265142E-02
 cg2d: Sum(rhs),rhsMax =   1.33822586473619E-03  1.30994297553701E-02
 cg2d: Sum(rhs),rhsMax =   1.33841660938203E-03  1.30994970743336E-02
 cg2d: Sum(rhs),rhsMax =   1.33860743389391E-03  1.30995641966912E-02
 cg2d: Sum(rhs),rhsMax =   1.33879835407513E-03  1.30996311083699E-02
 cg2d: Sum(rhs),rhsMax =   1.33898935494319E-03  1.30996978221860E-02
 cg2d: Sum(rhs),rhsMax =   1.33918048033969E-03  1.30997643285860E-02
 cg2d: Sum(rhs),rhsMax =   1.33937163709047E-03  1.30998306368966E-02
 cg2d: Sum(rhs),rhsMax =   1.33956295627144E-03  1.30998967368392E-02
 cg2d: Sum(rhs),rhsMax =   1.33975429200563E-03  1.30999626377210E-02
 cg2d: Sum(rhs),rhsMax =   1.33994578755939E-03  1.31000283347078E-02
 cg2d: Sum(rhs),rhsMax =   1.34013734337141E-03  1.31000938329680E-02
 cg2d: Sum(rhs),rhsMax =   1.34032899064148E-03  1.31001591221570E-02
 cg2d: Sum(rhs),rhsMax =   1.34052079695146E-03  1.31002242143045E-02
 cg2d: Sum(rhs),rhsMax =   1.34071263729161E-03  1.31002891021630E-02
 cg2d: Sum(rhs),rhsMax =   1.34090460677718E-03  1.31003537913944E-02
 cg2d: Sum(rhs),rhsMax =   1.34109666623684E-03  1.31004182740856E-02
 cg2d: Sum(rhs),rhsMax =   1.34128884710995E-03  1.31004825603732E-02
 cg2d: Sum(rhs),rhsMax =   1.34148092919850E-03  1.31005466409404E-02
 cg2d: Sum(rhs),rhsMax =   1.34167326325947E-03  1.31006105273384E-02
 cg2d: Sum(rhs),rhsMax =   1.34186564868790E-03  1.31006742057910E-02
 cg2d: Sum(rhs),rhsMax =   1.34205818550763E-03  1.31007376899274E-02
 cg2d: Sum(rhs),rhsMax =   1.34225082371585E-03  1.31008009665279E-02
 cg2d: Sum(rhs),rhsMax =   1.34244352768302E-03  1.31008640499249E-02
 cg2d: Sum(rhs),rhsMax =   1.34263632108008E-03  1.31009269262885E-02
 cg2d: Sum(rhs),rhsMax =   1.34282921258246E-03  1.31009896098008E-02
 cg2d: Sum(rhs),rhsMax =   1.34302219799783E-03  1.31010520865131E-02
 cg2d: Sum(rhs),rhsMax =   1.34321531672914E-03  1.31011143702404E-02
 cg2d: Sum(rhs),rhsMax =   1.34340845713254E-03  1.31011764493082E-02
 cg2d: Sum(rhs),rhsMax =   1.34360175600627E-03  1.31012383337193E-02
 cg2d: Sum(rhs),rhsMax =   1.34379512374101E-03  1.31013000144262E-02
 cg2d: Sum(rhs),rhsMax =   1.34398861479669E-03  1.31013615000811E-02
 cg2d: Sum(rhs),rhsMax =   1.34418215422076E-03  1.31014227828712E-02
 cg2d: Sum(rhs),rhsMax =   1.34437581669257E-03  1.31014838722090E-02
 cg2d: Sum(rhs),rhsMax =   1.34456954751355E-03  1.31015447605375E-02
 cg2d: Sum(rhs),rhsMax =   1.34476334011602E-03  1.31016054516001E-02
 cg2d: Sum(rhs),rhsMax =   1.34495721152842E-03  1.31016659439896E-02
 cg2d: Sum(rhs),rhsMax =   1.34515124639911E-03  1.31017262402785E-02
 cg2d: Sum(rhs),rhsMax =   1.34534534368562E-03  1.31017863321074E-02
 cg2d: Sum(rhs),rhsMax =   1.34553960442664E-03  1.31018462367039E-02
 cg2d: Sum(rhs),rhsMax =   1.34573393486969E-03  1.31019059360272E-02
 cg2d: Sum(rhs),rhsMax =   1.34592831280693E-03  1.31019654417497E-02
 cg2d: Sum(rhs),rhsMax =   1.34612284250382E-03  1.31020247498467E-02
 cg2d: Sum(rhs),rhsMax =   1.34631745780697E-03  1.31020838648224E-02
 cg2d: Sum(rhs),rhsMax =   1.34651220072033E-03  1.31021427757469E-02
 cg2d: Sum(rhs),rhsMax =   1.34670698272276E-03  1.31022014967179E-02
 cg2d: Sum(rhs),rhsMax =   1.34690187353031E-03  1.31022600175259E-02
 cg2d: Sum(rhs),rhsMax =   1.34709685844731E-03  1.31023183496910E-02
 cg2d: Sum(rhs),rhsMax =   1.34729196706047E-03  1.31023764742904E-02
 cg2d: Sum(rhs),rhsMax =   1.34748715589873E-03  1.31024344112651E-02
 cg2d: Sum(rhs),rhsMax =   1.34768246017126E-03  1.31024921474857E-02
 cg2d: Sum(rhs),rhsMax =   1.34787784711859E-03  1.31025496951222E-02
 cg2d: Sum(rhs),rhsMax =   1.34807335124803E-03  1.31026070409969E-02
 cg2d: Sum(rhs),rhsMax =   1.34826892264240E-03  1.31026641969932E-02
 cg2d: Sum(rhs),rhsMax =   1.34846462030827E-03  1.31027211531724E-02
 cg2d: Sum(rhs),rhsMax =   1.34866041255721E-03  1.31027779223470E-02
 cg2d: Sum(rhs),rhsMax =   1.34885628631782E-03  1.31028344888478E-02
 cg2d: Sum(rhs),rhsMax =   1.34905229122497E-03  1.31028908679601E-02
 cg2d: Sum(rhs),rhsMax =   1.34924840978136E-03  1.31029470466243E-02
(PID.TID 0000.0001)      cg2d_init_res =   2.29783100539442E-03
(PID.TID 0000.0001)      cg2d_iters(min,last) =      -1     366
(PID.TID 0000.0001)      cg2d_last_res =   9.21244342472596E-08
(PID.TID 0000.0001) // =======================================================
(PID.TID 0000.0001) // Begin MONITOR dynamic field statistics
(PID.TID 0000.0001) // =======================================================
(PID.TID 0000.0001) %MON time_tsnumber                =                 13752
(PID.TID 0000.0001) %MON time_secondsf                =   1.6502400000000E+07
(PID.TID 0000.0001) %MON dynstat_eta_max              =   1.2328462759539E-01
(PID.TID 0000.0001) %MON dynstat_eta_min              =  -3.0412431187099E-01
(PID.TID 0000.0001) %MON dynstat_eta_mean             =  -8.4143785847416E-08
(PID.TID 0000.0001) %MON dynstat_eta_sd               =   1.1001123080680E-01
(PID.TID 0000.0001) %MON dynstat_eta_del2             =   6.6446265253006E-07
(PID.TID 0000.0001) %MON dynstat_uvel_max             =   1.1458027056024E-01
(PID.TID 0000.0001) %MON dynstat_uvel_min             =  -1.2203128040268E-01
(PID.TID 0000.0001) %MON dynstat_uvel_mean            =   1.2266996353273E-08
(PID.TID 0000.0001) %MON dynstat_uvel_sd              =   4.5719482535127E-02
(PID.TID 0000.0001) %MON dynstat_uvel_del2            =   1.0076120635965E-06
(PID.TID 0000.0001) %MON dynstat_vvel_max             =   1.3290368095598E-01
(PID.TID 0000.0001) %MON dynstat_vvel_min             =  -1.0848231208890E-01
(PID.TID 0000.0001) %MON dynstat_vvel_mean            =  -3.4109651989101E-08
(PID.TID 0000.0001) %MON dynstat_vvel_sd              =   4.2843939857732E-02
(PID.TID 0000.0001) %MON dynstat_vvel_del2            =   1.2836986131902E-06
(PID.TID 0000.0001) %MON dynstat_wvel_max             =   6.6688831569627E-09
(PID.TID 0000.0001) %MON dynstat_wvel_min             =  -9.1281701694243E-09
(PID.TID 0000.0001) %MON dynstat_wvel_mean            =  -1.9148524159940E-21
(PID.TID 0000.0001) %MON dynstat_wvel_sd              =   3.2800838323373E-09
(PID.TID 0000.0001) %MON dynstat_wvel_del2            =   3.6362664716652E-14
(PID.TID 0000.0001) %MON dynstat_theta_max            =   2.0000000000000E+01
(PID.TID 0000.0001) %MON dynstat_theta_min            =   2.0000000000000E+01
(PID.TID 0000.0001) %MON dynstat_theta_mean           =   1.9999999999999E+01
(PID.TID 0000.0001) %MON dynstat_theta_sd             =   1.1972645097557E-12
(PID.TID 0000.0001) %MON dynstat_theta_del2           =   0.0000000000000E+00
(PID.TID 0000.0001) %MON dynstat_salt_max             =   3.0000000000000E+01
(PID.TID 0000.0001) %MON dynstat_salt_min             =   3.0000000000000E+01
(PID.TID 0000.0001) %MON dynstat_salt_mean            =   2.9999999999998E+01
(PID.TID 0000.0001) %MON dynstat_salt_sd              =   2.1529444893531E-12
(PID.TID 0000.0001) %MON dynstat_salt_del2            =   0.0000000000000E+00
(PID.TID 0000.0001) %MON trAdv_CFL_u_max              =   2.9286705526884E-02
(PID.TID 0000.0001) %MON trAdv_CFL_v_max              =   3.1895450059786E-02
(PID.TID 0000.0001) %MON trAdv_CFL_w_max              =   1.6972202128093E-09
(PID.TID 0000.0001) %MON advcfl_uvel_max              =   2.9287507296643E-02
(PID.TID 0000.0001) %MON advcfl_vvel_max              =   3.1896883429436E-02
(PID.TID 0000.0001) %MON advcfl_wvel_max              =   4.3815216813236E-09
(PID.TID 0000.0001) %MON advcfl_W_hf_max              =   0.0000000000000E+00
(PID.TID 0000.0001) %MON pe_b_mean                    =   1.2382485384238E-05
(PID.TID 0000.0001) %MON ke_max                       =   8.8935930214453E-03
(PID.TID 0000.0001) %MON ke_mean                      =   1.9541012058355E-03
(PID.TID 0000.0001) %MON ke_vol                       =   7.2529629296391E+15
(PID.TID 0000.0001) %MON vort_r_min                   =  -4.1707515896943E-06
(PID.TID 0000.0001) %MON vort_r_max                   =   3.3350792838743E-06
(PID.TID 0000.0001) %MON vort_a_mean                  =   1.0615000000000E-04
(PID.TID 0000.0001) %MON vort_a_sd                    =   3.6294589264115E-06
(PID.TID 0000.0001) %MON vort_p_mean                  =   1.1210870169429E-04
(PID.TID 0000.0001) %MON vort_p_sd                    =   2.1066590693980E-05
(PID.TID 0000.0001) %MON surfExpan_theta_mean         =  -3.8345871890927E-20
(PID.TID 0000.0001) %MON surfExpan_salt_mean          =  -5.7531455675557E-20
(PID.TID 0000.0001) // =======================================================
(PID.TID 0000.0001) // End MONITOR dynamic field statistics
(PID.TID 0000.0001) // =======================================================
 cg2d: Sum(rhs),rhsMax =   1.34944459944900E-03  1.31030030382487E-02
 cg2d: Sum(rhs),rhsMax =   1.34964092519439E-03  1.31030588281886E-02
 cg2d: Sum(rhs),rhsMax =   1.34983729723251E-03  1.31031144311114E-02
 cg2d: Sum(rhs),rhsMax =   1.35003375585564E-03  1.31031698349672E-02
 cg2d: Sum(rhs),rhsMax =   1.35023033370251E-03  1.31032250539654E-02
 cg2d: Sum(rhs),rhsMax =   1.35042704709913E-03  1.31032800711862E-02
 cg2d: Sum(rhs),rhsMax =   1.35062382079215E-03  1.31033349018842E-02
 cg2d: Sum(rhs),rhsMax =   1.35082073585668E-03  1.31033895348015E-02
 cg2d: Sum(rhs),rhsMax =   1.35101765679652E-03  1.31034439810393E-02
 cg2d: Sum(rhs),rhsMax =   1.35121475900687E-03  1.31034982286179E-02
 cg2d: Sum(rhs),rhsMax =   1.35141194173905E-03  1.31035522912963E-02
 cg2d: Sum(rhs),rhsMax =   1.35160927395710E-03  1.31036061553361E-02
 cg2d: Sum(rhs),rhsMax =   1.35180665550138E-03  1.31036598332324E-02
 cg2d: Sum(rhs),rhsMax =   1.35200418668035E-03  1.31037133148184E-02
 cg2d: Sum(rhs),rhsMax =   1.35220179760216E-03  1.31037666114796E-02
 cg2d: Sum(rhs),rhsMax =   1.35239954490406E-03  1.31038197085948E-02
 cg2d: Sum(rhs),rhsMax =   1.35259733859309E-03  1.31038726218800E-02
 cg2d: Sum(rhs),rhsMax =   1.35279527354515E-03  1.31039253384446E-02
 cg2d: Sum(rhs),rhsMax =   1.35299329122432E-03  1.31039778699940E-02
 cg2d: Sum(rhs),rhsMax =   1.35319144917497E-03  1.31040302044054E-02
 cg2d: Sum(rhs),rhsMax =   1.35338968520720E-03  1.31040823556295E-02
 cg2d: Sum(rhs),rhsMax =   1.35358802099774E-03  1.31041343100580E-02
 cg2d: Sum(rhs),rhsMax =   1.35378639945514E-03  1.31041860816190E-02
 cg2d: Sum(rhs),rhsMax =   1.35398496554680E-03  1.31042376572687E-02
 cg2d: Sum(rhs),rhsMax =   1.35418355869941E-03  1.31042890483254E-02
 cg2d: Sum(rhs),rhsMax =   1.35438228556223E-03  1.31043402438308E-02
 cg2d: Sum(rhs),rhsMax =   1.35458111338053E-03  1.31043912568661E-02
 cg2d: Sum(rhs),rhsMax =   1.35478008936940E-03  1.31044420765022E-02
 cg2d: Sum(rhs),rhsMax =   1.35497916807747E-03  1.31044927128719E-02
 cg2d: Sum(rhs),rhsMax =   1.35517836367468E-03  1.31045431530871E-02
 cg2d: Sum(rhs),rhsMax =   1.35537764700130E-03  1.31045934112360E-02
 cg2d: Sum(rhs),rhsMax =   1.35557705153300E-03  1.31046434750618E-02
 cg2d: Sum(rhs),rhsMax =   1.35577653846093E-03  1.31046933562463E-02
 cg2d: Sum(rhs),rhsMax =   1.35597615668546E-03  1.31047430429848E-02
 cg2d: Sum(rhs),rhsMax =   1.35617582228603E-03  1.31047925502347E-02
 cg2d: Sum(rhs),rhsMax =   1.35637568147996E-03  1.31048418637448E-02
 cg2d: Sum(rhs),rhsMax =   1.35657553225483E-03  1.31048909937780E-02
 cg2d: Sum(rhs),rhsMax =   1.35677557879748E-03  1.31049399316696E-02
 cg2d: Sum(rhs),rhsMax =   1.35697572378323E-03  1.31049886889220E-02
 cg2d: Sum(rhs),rhsMax =   1.35717601529879E-03  1.31050372531711E-02
 cg2d: Sum(rhs),rhsMax =   1.35737639253854E-03  1.31050856375066E-02
 cg2d: Sum(rhs),rhsMax =   1.35757687452894E-03  1.31051338286759E-02
 cg2d: Sum(rhs),rhsMax =   1.35777744600634E-03  1.31051818388392E-02
 cg2d: Sum(rhs),rhsMax =   1.35797818802192E-03  1.31052296580929E-02
 cg2d: Sum(rhs),rhsMax =   1.35817894465354E-03  1.31052772981810E-02
 cg2d: Sum(rhs),rhsMax =   1.35837987108431E-03  1.31053247444452E-02
 cg2d: Sum(rhs),rhsMax =   1.35858092151745E-03  1.31053720112442E-02
 cg2d: Sum(rhs),rhsMax =   1.35878205566695E-03  1.31054190869648E-02
 cg2d: Sum(rhs),rhsMax =   1.35898333987323E-03  1.31054659853176E-02
 cg2d: Sum(rhs),rhsMax =   1.35918473424006E-03  1.31055126912115E-02
 cg2d: Sum(rhs),rhsMax =   1.35938625619747E-03  1.31055592182692E-02
 cg2d: Sum(rhs),rhsMax =   1.35958791209527E-03  1.31056055549054E-02
 cg2d: Sum(rhs),rhsMax =   1.35978967536901E-03  1.31056517130195E-02
 cg2d: Sum(rhs),rhsMax =   1.35999151477667E-03  1.31056976809799E-02
 cg2d: Sum(rhs),rhsMax =   1.36019350888581E-03  1.31057434710448E-02
 cg2d: Sum(rhs),rhsMax =   1.36039560820887E-03  1.31057890705868E-02
 cg2d: Sum(rhs),rhsMax =   1.36059782774697E-03  1.31058344930929E-02
 cg2d: Sum(rhs),rhsMax =   1.36080004521948E-03  1.31058797262918E-02
 cg2d: Sum(rhs),rhsMax =   1.36100249401321E-03  1.31059247815070E-02
 cg2d: Sum(rhs),rhsMax =   1.36120503518354E-03  1.31059696462990E-02
 cg2d: Sum(rhs),rhsMax =   1.36140771307243E-03  1.31060143340920E-02
 cg2d: Sum(rhs),rhsMax =   1.36161052302469E-03  1.31060588351572E-02
 cg2d: Sum(rhs),rhsMax =   1.36181346141832E-03  1.31061031574889E-02
 cg2d: Sum(rhs),rhsMax =   1.36201649378292E-03  1.31061472946783E-02
 cg2d: Sum(rhs),rhsMax =   1.36221964462231E-03  1.31061912541355E-02
 cg2d: Sum(rhs),rhsMax =   1.36242295819606E-03  1.31062350222731E-02
 cg2d: Sum(rhs),rhsMax =   1.36262637661965E-03  1.31062786178204E-02
 cg2d: Sum(rhs),rhsMax =   1.36282991189405E-03  1.31063220270926E-02
 cg2d: Sum(rhs),rhsMax =   1.36303353025785E-03  1.31063652572044E-02
 cg2d: Sum(rhs),rhsMax =   1.36323732474772E-03  1.31064083006564E-02
 cg2d: Sum(rhs),rhsMax =   1.36344121242616E-03  1.31064511690739E-02
 cg2d: Sum(rhs),rhsMax =   1.36364527073659E-03  1.31064938512575E-02
(PID.TID 0000.0001)      cg2d_init_res =   2.27353402111814E-03
(PID.TID 0000.0001)      cg2d_iters(min,last) =      -1     366
(PID.TID 0000.0001)      cg2d_last_res =   9.18091203464511E-08
(PID.TID 0000.0001) // =======================================================
(PID.TID 0000.0001) // Begin MONITOR dynamic field statistics
(PID.TID 0000.0001) // =======================================================
(PID.TID 0000.0001) %MON time_tsnumber                =                 13824
(PID.TID 0000.0001) %MON time_secondsf                =   1.6588800000000E+07
(PID.TID 0000.0001) %MON dynstat_eta_max              =   1.2372318789000E-01
(PID.TID 0000.0001) %MON dynstat_eta_min              =  -3.0489195987755E-01
(PID.TID 0000.0001) %MON dynstat_eta_mean             =  -8.5064922244862E-08
(PID.TID 0000.0001) %MON dynstat_eta_sd               =   1.1022182735178E-01
(PID.TID 0000.0001) %MON dynstat_eta_del2             =   6.6604685185029E-07
(PID.TID 0000.0001) %MON dynstat_uvel_max             =   1.1480399903503E-01
(PID.TID 0000.0001) %MON dynstat_uvel_min             =  -1.2226855028942E-01
(PID.TID 0000.0001) %MON dynstat_uvel_mean            =   1.9971263652152E-08
(PID.TID 0000.0001) %MON dynstat_uvel_sd              =   4.5800486474952E-02
(PID.TID 0000.0001) %MON dynstat_uvel_del2            =   1.0095121273555E-06
(PID.TID 0000.0001) %MON dynstat_vvel_max             =   1.3333053040805E-01
(PID.TID 0000.0001) %MON dynstat_vvel_min             =  -1.0881812346893E-01
(PID.TID 0000.0001) %MON dynstat_vvel_mean            =  -3.5248022090982E-08
(PID.TID 0000.0001) %MON dynstat_vvel_sd              =   4.2966348047715E-02
(PID.TID 0000.0001) %MON dynstat_vvel_del2            =   1.2854404802419E-06
(PID.TID 0000.0001) %MON dynstat_wvel_max             =   7.1593365143053E-09
(PID.TID 0000.0001) %MON dynstat_wvel_min             =  -9.0647139609791E-09
(PID.TID 0000.0001) %MON dynstat_wvel_mean            =   1.1759119495661E-21
(PID.TID 0000.0001) %MON dynstat_wvel_sd              =   3.2617832935843E-09
(PID.TID 0000.0001) %MON dynstat_wvel_del2            =   3.5921140040593E-14
(PID.TID 0000.0001) %MON dynstat_theta_max            =   2.0000000000000E+01
(PID.TID 0000.0001) %MON dynstat_theta_min            =   2.0000000000000E+01
(PID.TID 0000.0001) %MON dynstat_theta_mean           =   1.9999999999999E+01
(PID.TID 0000.0001) %MON dynstat_theta_sd             =   1.1972645097557E-12
(PID.TID 0000.0001) %MON dynstat_theta_del2           =   0.0000000000000E+00
(PID.TID 0000.0001) %MON dynstat_salt_max             =   3.0000000000000E+01
(PID.TID 0000.0001) %MON dynstat_salt_min             =   3.0000000000000E+01
(PID.TID 0000.0001) %MON dynstat_salt_mean            =   2.9999999999998E+01
(PID.TID 0000.0001) %MON dynstat_salt_sd              =   2.1529444893531E-12
(PID.TID 0000.0001) %MON dynstat_salt_del2            =   0.0000000000000E+00
(PID.TID 0000.0001) %MON trAdv_CFL_u_max              =   2.9343671579433E-02
(PID.TID 0000.0001) %MON trAdv_CFL_v_max              =   3.1997914598940E-02
(PID.TID 0000.0001) %MON trAdv_CFL_w_max              =   1.8240613281406E-09
(PID.TID 0000.0001) %MON advcfl_uvel_max              =   2.9344452069461E-02
(PID.TID 0000.0001) %MON advcfl_vvel_max              =   3.1999327297931E-02
(PID.TID 0000.0001) %MON advcfl_wvel_max              =   4.3510627012700E-09
(PID.TID 0000.0001) %MON advcfl_W_hf_max              =   0.0000000000000E+00
(PID.TID 0000.0001) %MON pe_b_mean                    =   1.2429938805378E-05
(PID.TID 0000.0001) %MON ke_max                       =   8.9506112595083E-03
(PID.TID 0000.0001) %MON ke_mean                      =   1.9630195594509E-03
(PID.TID 0000.0001) %MON ke_vol                       =   7.2529629296391E+15
(PID.TID 0000.0001) %MON vort_r_min                   =  -4.1721138283893E-06
(PID.TID 0000.0001) %MON vort_r_max                   =   3.3451194287502E-06
(PID.TID 0000.0001) %MON vort_a_mean                  =   1.0615000000000E-04
(PID.TID 0000.0001) %MON vort_a_sd                    =   3.6297595447717E-06
(PID.TID 0000.0001) %MON vort_p_mean                  =   1.1210870169429E-04
(PID.TID 0000.0001) %MON vort_p_sd                    =   2.1066679752636E-05
(PID.TID 0000.0001) %MON surfExpan_theta_mean         =   2.3501620153348E-20
(PID.TID 0000.0001) %MON surfExpan_salt_mean          =   3.5252618092467E-20
(PID.TID 0000.0001) // =======================================================
(PID.TID 0000.0001) // End MONITOR dynamic field statistics
(PID.TID 0000.0001) // =======================================================
 cg2d: Sum(rhs),rhsMax =   1.36384944003737E-03  1.31065363586049E-02
 cg2d: Sum(rhs),rhsMax =   1.36405374483849E-03  1.31065786794726E-02
 cg2d: Sum(rhs),rhsMax =   1.36425814752973E-03  1.31066208253801E-02
 cg2d: Sum(rhs),rhsMax =   1.36446268269883E-03  1.31066627859211E-02
 cg2d: Sum(rhs),rhsMax =   1.36466734917083E-03  1.31067045742414E-02
 cg2d: Sum(rhs),rhsMax =   1.36487216638312E-03  1.31067461735923E-02
 cg2d: Sum(rhs),rhsMax =   1.36507711362645E-03  1.31067876008345E-02
 cg2d: Sum(rhs),rhsMax =   1.36528220765170E-03  1.31068288402407E-02
 cg2d: Sum(rhs),rhsMax =   1.36548741495622E-03  1.31068699073807E-02
 cg2d: Sum(rhs),rhsMax =   1.36569276954426E-03  1.31069107899986E-02
 cg2d: Sum(rhs),rhsMax =   1.36589826510982E-03  1.31069514997067E-02
 cg2d: Sum(rhs),rhsMax =   1.36610383794939E-03  1.31069920239030E-02
 cg2d: Sum(rhs),rhsMax =   1.36630958281412E-03  1.31070323746487E-02
 cg2d: Sum(rhs),rhsMax =   1.36651530817788E-03  1.31070725443967E-02
 cg2d: Sum(rhs),rhsMax =   1.36672131755450E-03  1.31071125384346E-02
 cg2d: Sum(rhs),rhsMax =   1.36692740555786E-03  1.31071523485329E-02
 cg2d: Sum(rhs),rhsMax =   1.36713369531564E-03  1.31071919883596E-02
 cg2d: Sum(rhs),rhsMax =   1.36734006702451E-03  1.31072314437043E-02
 cg2d: Sum(rhs),rhsMax =   1.36754657929998E-03  1.31072707279141E-02
 cg2d: Sum(rhs),rhsMax =   1.36775329095139E-03  1.31073098283199E-02
 cg2d: Sum(rhs),rhsMax =   1.36796008226034E-03  1.31073487589337E-02
 cg2d: Sum(rhs),rhsMax =   1.36816706662495E-03  1.31073875048358E-02
 cg2d: Sum(rhs),rhsMax =   1.36837414145620E-03  1.31074260794788E-02
 cg2d: Sum(rhs),rhsMax =   1.36858140622449E-03  1.31074644732801E-02
 cg2d: Sum(rhs),rhsMax =   1.36878869363818E-03  1.31075026946500E-02
 cg2d: Sum(rhs),rhsMax =   1.36899623208042E-03  1.31075407357159E-02
 cg2d: Sum(rhs),rhsMax =   1.36920383825325E-03  1.31075786066374E-02
 cg2d: Sum(rhs),rhsMax =   1.36941163547077E-03  1.31076162960451E-02
 cg2d: Sum(rhs),rhsMax =   1.36961956541050E-03  1.31076538127627E-02
 cg2d: Sum(rhs),rhsMax =   1.36982764977315E-03  1.31076911523553E-02
 cg2d: Sum(rhs),rhsMax =   1.37003590656022E-03  1.31077283203713E-02
 cg2d: Sum(rhs),rhsMax =   1.37024427950036E-03  1.31077653069758E-02
 cg2d: Sum(rhs),rhsMax =   1.37045282583049E-03  1.31078021234577E-02
 cg2d: Sum(rhs),rhsMax =   1.37066146285670E-03  1.31078387614912E-02
 cg2d: Sum(rhs),rhsMax =   1.37087028403259E-03  1.31078752286285E-02
 cg2d: Sum(rhs),rhsMax =   1.37107911050717E-03  1.31079115168401E-02
 cg2d: Sum(rhs),rhsMax =   1.37128820430876E-03  1.31079476359791E-02
 cg2d: Sum(rhs),rhsMax =   1.37149746907343E-03  1.31079835754370E-02
 cg2d: Sum(rhs),rhsMax =   1.37170687570221E-03  1.31080193472899E-02
 cg2d: Sum(rhs),rhsMax =   1.37191642329142E-03  1.31080549397650E-02
 cg2d: Sum(rhs),rhsMax =   1.37212615777372E-03  1.31080903630508E-02
 cg2d: Sum(rhs),rhsMax =   1.37233597385898E-03  1.31081256097621E-02
 cg2d: Sum(rhs),rhsMax =   1.37254592898545E-03  1.31081606870014E-02
 cg2d: Sum(rhs),rhsMax =   1.37275605913371E-03  1.31081955825327E-02
 cg2d: Sum(rhs),rhsMax =   1.37296638328136E-03  1.31082303156379E-02
 cg2d: Sum(rhs),rhsMax =   1.37317683270639E-03  1.31082648699889E-02
 cg2d: Sum(rhs),rhsMax =   1.37338743947317E-03  1.31082992569806E-02
 cg2d: Sum(rhs),rhsMax =   1.37359816422958E-03  1.31083334650831E-02
 cg2d: Sum(rhs),rhsMax =   1.37380906775357E-03  1.31083675078821E-02
 cg2d: Sum(rhs),rhsMax =   1.37402011182394E-03  1.31084013729664E-02
 cg2d: Sum(rhs),rhsMax =   1.37423131979526E-03  1.31084350708274E-02
 cg2d: Sum(rhs),rhsMax =   1.37444267211850E-03  1.31084685931687E-02
 cg2d: Sum(rhs),rhsMax =   1.37465420971277E-03  1.31085019502607E-02
 cg2d: Sum(rhs),rhsMax =   1.37486582939079E-03  1.31085351301962E-02
 cg2d: Sum(rhs),rhsMax =   1.37507769549857E-03  1.31085681421220E-02
 cg2d: Sum(rhs),rhsMax =   1.37528964694457E-03  1.31086009783279E-02
 cg2d: Sum(rhs),rhsMax =   1.37550179644504E-03  1.31086336507884E-02
 cg2d: Sum(rhs),rhsMax =   1.37571412412109E-03  1.31086661484596E-02
 cg2d: Sum(rhs),rhsMax =   1.37592656763794E-03  1.31086984778848E-02
 cg2d: Sum(rhs),rhsMax =   1.37613918694755E-03  1.31087306341658E-02
 cg2d: Sum(rhs),rhsMax =   1.37635196781248E-03  1.31087626262652E-02
 cg2d: Sum(rhs),rhsMax =   1.37656491713128E-03  1.31087944428235E-02
 cg2d: Sum(rhs),rhsMax =   1.37677802033316E-03  1.31088260931340E-02
 cg2d: Sum(rhs),rhsMax =   1.37699126491861E-03  1.31088575706937E-02
 cg2d: Sum(rhs),rhsMax =   1.37720470498393E-03  1.31088888848602E-02
 cg2d: Sum(rhs),rhsMax =   1.37741824564639E-03  1.31089200246291E-02
 cg2d: Sum(rhs),rhsMax =   1.37763196536552E-03  1.31089509973727E-02
 cg2d: Sum(rhs),rhsMax =   1.37784585598949E-03  1.31089817985566E-02
 cg2d: Sum(rhs),rhsMax =   1.37805989897579E-03  1.31090124375436E-02
 cg2d: Sum(rhs),rhsMax =   1.37827412957560E-03  1.31090429028586E-02
 cg2d: Sum(rhs),rhsMax =   1.37848854112146E-03  1.31090732044375E-02
 cg2d: Sum(rhs),rhsMax =   1.37870308851650E-03  1.31091033330084E-02
(PID.TID 0000.0001)      cg2d_init_res =   2.25167693255329E-03
(PID.TID 0000.0001)      cg2d_iters(min,last) =      -1     366
(PID.TID 0000.0001)      cg2d_last_res =   9.21980410965293E-08
(PID.TID 0000.0001) // =======================================================
(PID.TID 0000.0001) // Begin MONITOR dynamic field statistics
(PID.TID 0000.0001) // =======================================================
(PID.TID 0000.0001) %MON time_tsnumber                =                 13896
(PID.TID 0000.0001) %MON time_secondsf                =   1.6675200000000E+07
(PID.TID 0000.0001) %MON dynstat_eta_max              =   1.2412860637834E-01
(PID.TID 0000.0001) %MON dynstat_eta_min              =  -3.0565473683866E-01
(PID.TID 0000.0001) %MON dynstat_eta_mean             =  -8.6021796668332E-08
(PID.TID 0000.0001) %MON dynstat_eta_sd               =   1.1042969864343E-01
(PID.TID 0000.0001) %MON dynstat_eta_del2             =   6.6758961434416E-07
(PID.TID 0000.0001) %MON dynstat_uvel_max             =   1.1506472388708E-01
(PID.TID 0000.0001) %MON dynstat_uvel_min             =  -1.2249958503188E-01
(PID.TID 0000.0001) %MON dynstat_uvel_mean            =   2.5932013059126E-08
(PID.TID 0000.0001) %MON dynstat_uvel_sd              =   4.5884417650883E-02
(PID.TID 0000.0001) %MON dynstat_uvel_del2            =   1.0114570543481E-06
(PID.TID 0000.0001) %MON dynstat_vvel_max             =   1.3375133475281E-01
(PID.TID 0000.0001) %MON dynstat_vvel_min             =  -1.0916541871886E-01
(PID.TID 0000.0001) %MON dynstat_vvel_mean            =  -3.7545788020390E-08
(PID.TID 0000.0001) %MON dynstat_vvel_sd              =   4.3083617709541E-02
(PID.TID 0000.0001) %MON dynstat_vvel_del2            =   1.2866773024004E-06
(PID.TID 0000.0001) %MON dynstat_wvel_max             =   7.6111267413944E-09
(PID.TID 0000.0001) %MON dynstat_wvel_min             =  -9.0157939773053E-09
(PID.TID 0000.0001) %MON dynstat_wvel_mean            =   9.8618417955796E-21
(PID.TID 0000.0001) %MON dynstat_wvel_sd              =   3.2448392814942E-09
(PID.TID 0000.0001) %MON dynstat_wvel_del2            =   3.5506280665431E-14
(PID.TID 0000.0001) %MON dynstat_theta_max            =   2.0000000000000E+01
(PID.TID 0000.0001) %MON dynstat_theta_min            =   2.0000000000000E+01
(PID.TID 0000.0001) %MON dynstat_theta_mean           =   1.9999999999999E+01
(PID.TID 0000.0001) %MON dynstat_theta_sd             =   1.1972645097557E-12
(PID.TID 0000.0001) %MON dynstat_theta_del2           =   0.0000000000000E+00
(PID.TID 0000.0001) %MON dynstat_salt_max             =   3.0000000000000E+01
(PID.TID 0000.0001) %MON dynstat_salt_min             =   3.0000000000000E+01
(PID.TID 0000.0001) %MON dynstat_salt_mean            =   2.9999999999998E+01
(PID.TID 0000.0001) %MON dynstat_salt_sd              =   2.1529444893531E-12
(PID.TID 0000.0001) %MON dynstat_salt_del2            =   0.0000000000000E+00
(PID.TID 0000.0001) %MON trAdv_CFL_u_max              =   2.9399140226257E-02
(PID.TID 0000.0001) %MON trAdv_CFL_v_max              =   3.2098927131422E-02
(PID.TID 0000.0001) %MON trAdv_CFL_w_max              =   1.9396203290956E-09
(PID.TID 0000.0001) %MON advcfl_uvel_max              =   2.9399900407651E-02
(PID.TID 0000.0001) %MON advcfl_vvel_max              =   3.2100320340673E-02
(PID.TID 0000.0001) %MON advcfl_wvel_max              =   4.3275811091065E-09
(PID.TID 0000.0001) %MON advcfl_W_hf_max              =   0.0000000000000E+00
(PID.TID 0000.0001) %MON pe_b_mean                    =   1.2476867149121E-05
(PID.TID 0000.0001) %MON ke_max                       =   9.0067969584018E-03
(PID.TID 0000.0001) %MON ke_mean                      =   1.9718726641625E-03
(PID.TID 0000.0001) %MON ke_vol                       =   7.2529629296391E+15
(PID.TID 0000.0001) %MON vort_r_min                   =  -4.1731540756662E-06
(PID.TID 0000.0001) %MON vort_r_max                   =   3.3533575887824E-06
(PID.TID 0000.0001) %MON vort_a_mean                  =   1.0615000000000E-04
(PID.TID 0000.0001) %MON vort_a_sd                    =   3.6300539912305E-06
(PID.TID 0000.0001) %MON vort_p_mean                  =   1.1210870169429E-04
(PID.TID 0000.0001) %MON vort_p_sd                    =   2.1066764309248E-05
(PID.TID 0000.0001) %MON surfExpan_theta_mean         =   1.9720349735351E-19
(PID.TID 0000.0001) %MON surfExpan_salt_mean          =   2.9581245994819E-19
(PID.TID 0000.0001) // =======================================================
(PID.TID 0000.0001) // End MONITOR dynamic field statistics
(PID.TID 0000.0001) // =======================================================
 cg2d: Sum(rhs),rhsMax =   1.37891781381348E-03  1.31091332990651E-02
 cg2d: Sum(rhs),rhsMax =   1.37913266793619E-03  1.31091630931402E-02
 cg2d: Sum(rhs),rhsMax =   1.37934765784621E-03  1.31091927223460E-02
 cg2d: Sum(rhs),rhsMax =   1.37956286638150E-03  1.31092221804803E-02
 cg2d: Sum(rhs),rhsMax =   1.37977816552810E-03  1.31092514767598E-02
 cg2d: Sum(rhs),rhsMax =   1.37999367994356E-03  1.31092806035373E-02
 cg2d: Sum(rhs),rhsMax =   1.38020933309789E-03  1.31093095640043E-02
 cg2d: Sum(rhs),rhsMax =   1.38042517174230E-03  1.31093383560518E-02
 cg2d: Sum(rhs),rhsMax =   1.38064116177742E-03  1.31093669859893E-02
 cg2d: Sum(rhs),rhsMax =   1.38085733991239E-03  1.31093954451805E-02
 cg2d: Sum(rhs),rhsMax =   1.38107367248446E-03  1.31094237415598E-02
 cg2d: Sum(rhs),rhsMax =   1.38129019027973E-03  1.31094518697575E-02
 cg2d: Sum(rhs),rhsMax =   1.38150684544907E-03  1.31094798355187E-02
 cg2d: Sum(rhs),rhsMax =   1.38172359627333E-03  1.31095076317781E-02
 cg2d: Sum(rhs),rhsMax =   1.38194059776797E-03  1.31095352657780E-02
 cg2d: Sum(rhs),rhsMax =   1.38215772948735E-03  1.31095627329103E-02
 cg2d: Sum(rhs),rhsMax =   1.38237505786957E-03  1.31095900369804E-02
 cg2d: Sum(rhs),rhsMax =   1.38259254967958E-03  1.31096171717872E-02
 cg2d: Sum(rhs),rhsMax =   1.38281020183475E-03  1.31096441470482E-02
 cg2d: Sum(rhs),rhsMax =   1.38302800524428E-03  1.31096709558335E-02
 cg2d: Sum(rhs),rhsMax =   1.38324595861140E-03  1.31096976014035E-02
 cg2d: Sum(rhs),rhsMax =   1.38346411660794E-03  1.31097240804704E-02
 cg2d: Sum(rhs),rhsMax =   1.38368239146458E-03  1.31097503986368E-02
 cg2d: Sum(rhs),rhsMax =   1.38390087994703E-03  1.31097765508658E-02
 cg2d: Sum(rhs),rhsMax =   1.38411951062643E-03  1.31098025414231E-02
 cg2d: Sum(rhs),rhsMax =   1.38433833065520E-03  1.31098283667700E-02
 cg2d: Sum(rhs),rhsMax =   1.38455727626706E-03  1.31098540303566E-02
 cg2d: Sum(rhs),rhsMax =   1.38477642811743E-03  1.31098795293506E-02
 cg2d: Sum(rhs),rhsMax =   1.38499567863024E-03  1.31099048675819E-02
 cg2d: Sum(rhs),rhsMax =   1.38521511444932E-03  1.31099300411114E-02
 cg2d: Sum(rhs),rhsMax =   1.38543475842398E-03  1.31099550544232E-02
 cg2d: Sum(rhs),rhsMax =   1.38565454616837E-03  1.31099799041166E-02
 cg2d: Sum(rhs),rhsMax =   1.38587449612047E-03  1.31100045921962E-02
 cg2d: Sum(rhs),rhsMax =   1.38609464013334E-03  1.31100291153666E-02
 cg2d: Sum(rhs),rhsMax =   1.38631491682882E-03  1.31100534793423E-02
 cg2d: Sum(rhs),rhsMax =   1.38653535753546E-03  1.31100776832430E-02
 cg2d: Sum(rhs),rhsMax =   1.38675597165679E-03  1.31101017251146E-02
 cg2d: Sum(rhs),rhsMax =   1.38697673269152E-03  1.31101256030648E-02
 cg2d: Sum(rhs),rhsMax =   1.38719771796611E-03  1.31101493211098E-02
 cg2d: Sum(rhs),rhsMax =   1.38741882908730E-03  1.31101728771032E-02
 cg2d: Sum(rhs),rhsMax =   1.38764010622913E-03  1.31101962747475E-02
 cg2d: Sum(rhs),rhsMax =   1.38786147621980E-03  1.31102195100570E-02
 cg2d: Sum(rhs),rhsMax =   1.38808303445133E-03  1.31102425870153E-02
 cg2d: Sum(rhs),rhsMax =   1.38830479457799E-03  1.31102655018381E-02
 cg2d: Sum(rhs),rhsMax =   1.38852670925581E-03  1.31102882578586E-02
 cg2d: Sum(rhs),rhsMax =   1.38874874617492E-03  1.31103108528512E-02
 cg2d: Sum(rhs),rhsMax =   1.38897095636227E-03  1.31103332888793E-02
 cg2d: Sum(rhs),rhsMax =   1.38919336661335E-03  1.31103555636429E-02
 cg2d: Sum(rhs),rhsMax =   1.38941591192872E-03  1.31103776816075E-02
 cg2d: Sum(rhs),rhsMax =   1.38963861354796E-03  1.31103996379359E-02
 cg2d: Sum(rhs),rhsMax =   1.38986141566082E-03  1.31104214370984E-02
 cg2d: Sum(rhs),rhsMax =   1.39008441795467E-03  1.31104430777470E-02
 cg2d: Sum(rhs),rhsMax =   1.39030758847842E-03  1.31104645598455E-02
 cg2d: Sum(rhs),rhsMax =   1.39053088451738E-03  1.31104858805193E-02
 cg2d: Sum(rhs),rhsMax =   1.39075440230766E-03  1.31105070451941E-02
 cg2d: Sum(rhs),rhsMax =   1.39097804210959E-03  1.31105280505914E-02
 cg2d: Sum(rhs),rhsMax =   1.39120188340253E-03  1.31105488998749E-02
 cg2d: Sum(rhs),rhsMax =   1.39142579271003E-03  1.31105695903990E-02
 cg2d: Sum(rhs),rhsMax =   1.39164991918764E-03  1.31105901232695E-02
 cg2d: Sum(rhs),rhsMax =   1.39187416078057E-03  1.31106104977475E-02
 cg2d: Sum(rhs),rhsMax =   1.39209857209318E-03  1.31106307158105E-02
 cg2d: Sum(rhs),rhsMax =   1.39232313654986E-03  1.31106507759909E-02
 cg2d: Sum(rhs),rhsMax =   1.39254787246690E-03  1.31106706799925E-02
 cg2d: Sum(rhs),rhsMax =   1.39277273779025E-03  1.31106904255239E-02
 cg2d: Sum(rhs),rhsMax =   1.39299774551077E-03  1.31107100145491E-02
 cg2d: Sum(rhs),rhsMax =   1.39322292202678E-03  1.31107294503633E-02
 cg2d: Sum(rhs),rhsMax =   1.39344827055992E-03  1.31107487282870E-02
 cg2d: Sum(rhs),rhsMax =   1.39367374840932E-03  1.31107678491608E-02
 cg2d: Sum(rhs),rhsMax =   1.39389939440921E-03  1.31107868146639E-02
 cg2d: Sum(rhs),rhsMax =   1.39412518854219E-03  1.31108056246716E-02
 cg2d: Sum(rhs),rhsMax =   1.39435112482333E-03  1.31108242780167E-02
 cg2d: Sum(rhs),rhsMax =   1.39457721365377E-03  1.31108427762987E-02
(PID.TID 0000.0001)      cg2d_init_res =   2.23294209623258E-03
(PID.TID 0000.0001)      cg2d_iters(min,last) =      -1     366
(PID.TID 0000.0001)      cg2d_last_res =   9.29595616020532E-08
(PID.TID 0000.0001) // =======================================================
(PID.TID 0000.0001) // Begin MONITOR dynamic field statistics
(PID.TID 0000.0001) // =======================================================
(PID.TID 0000.0001) %MON time_tsnumber                =                 13968
(PID.TID 0000.0001) %MON time_secondsf                =   1.6761600000000E+07
(PID.TID 0000.0001) %MON dynstat_eta_max              =   1.2449837037504E-01
(PID.TID 0000.0001) %MON dynstat_eta_min              =  -3.0641323557271E-01
(PID.TID 0000.0001) %MON dynstat_eta_mean             =  -8.7024267630692E-08
(PID.TID 0000.0001) %MON dynstat_eta_sd               =   1.1063515705677E-01
(PID.TID 0000.0001) %MON dynstat_eta_del2             =   6.6909037611096E-07
(PID.TID 0000.0001) %MON dynstat_uvel_max             =   1.1536145316224E-01
(PID.TID 0000.0001) %MON dynstat_uvel_min             =  -1.2272466746797E-01
(PID.TID 0000.0001) %MON dynstat_uvel_mean            =   2.9845083402414E-08
(PID.TID 0000.0001) %MON dynstat_uvel_sd              =   4.5971903432488E-02
(PID.TID 0000.0001) %MON dynstat_uvel_del2            =   1.0134475172627E-06
(PID.TID 0000.0001) %MON dynstat_vvel_max             =   1.3416659100574E-01
(PID.TID 0000.0001) %MON dynstat_vvel_min             =  -1.0952110114234E-01
(PID.TID 0000.0001) %MON dynstat_vvel_mean            =  -4.0688364243400E-08
(PID.TID 0000.0001) %MON dynstat_vvel_sd              =   4.3195174528067E-02
(PID.TID 0000.0001) %MON dynstat_vvel_del2            =   1.2874359353536E-06
(PID.TID 0000.0001) %MON dynstat_wvel_max             =   8.0041463568341E-09
(PID.TID 0000.0001) %MON dynstat_wvel_min             =  -8.9814648008905E-09
(PID.TID 0000.0001) %MON dynstat_wvel_mean            =  -3.6086120781710E-21
(PID.TID 0000.0001) %MON dynstat_wvel_sd              =   3.2270011966194E-09
(PID.TID 0000.0001) %MON dynstat_wvel_del2            =   3.5127198962048E-14
(PID.TID 0000.0001) %MON dynstat_theta_max            =   2.0000000000000E+01
(PID.TID 0000.0001) %MON dynstat_theta_min            =   2.0000000000000E+01
(PID.TID 0000.0001) %MON dynstat_theta_mean           =   1.9999999999999E+01
(PID.TID 0000.0001) %MON dynstat_theta_sd             =   1.1972645097557E-12
(PID.TID 0000.0001) %MON dynstat_theta_del2           =   0.0000000000000E+00
(PID.TID 0000.0001) %MON dynstat_salt_max             =   3.0000000000000E+01
(PID.TID 0000.0001) %MON dynstat_salt_min             =   3.0000000000000E+01
(PID.TID 0000.0001) %MON dynstat_salt_mean            =   2.9999999999998E+01
(PID.TID 0000.0001) %MON dynstat_salt_sd              =   2.1529444893531E-12
(PID.TID 0000.0001) %MON dynstat_salt_del2            =   0.0000000000000E+00
(PID.TID 0000.0001) %MON trAdv_CFL_u_max              =   2.9453179409858E-02
(PID.TID 0000.0001) %MON trAdv_CFL_v_max              =   3.2198606005063E-02
(PID.TID 0000.0001) %MON trAdv_CFL_w_max              =   2.0419122031758E-09
(PID.TID 0000.0001) %MON advcfl_uvel_max              =   2.9453920192312E-02
(PID.TID 0000.0001) %MON advcfl_vvel_max              =   3.2199981841378E-02
(PID.TID 0000.0001) %MON advcfl_wvel_max              =   4.3111031044275E-09
(PID.TID 0000.0001) %MON advcfl_W_hf_max              =   0.0000000000000E+00
(PID.TID 0000.0001) %MON pe_b_mean                    =   1.2523337656242E-05
(PID.TID 0000.0001) %MON ke_max                       =   9.0621825624388E-03
(PID.TID 0000.0001) %MON ke_mean                      =   1.9806634692817E-03
(PID.TID 0000.0001) %MON ke_vol                       =   7.2529629296391E+15
(PID.TID 0000.0001) %MON vort_r_min                   =  -4.1738954659290E-06
(PID.TID 0000.0001) %MON vort_r_max                   =   3.3599349062168E-06
(PID.TID 0000.0001) %MON vort_a_mean                  =   1.0615000000000E-04
(PID.TID 0000.0001) %MON vort_a_sd                    =   3.6303423361483E-06
(PID.TID 0000.0001) %MON vort_p_mean                  =   1.1210870169429E-04
(PID.TID 0000.0001) %MON vort_p_sd                    =   2.1066843922943E-05
(PID.TID 0000.0001) %MON surfExpan_theta_mean         =  -7.2216597314637E-20
(PID.TID 0000.0001) %MON surfExpan_salt_mean          =  -1.0830726038485E-19
(PID.TID 0000.0001) // =======================================================
(PID.TID 0000.0001) // End MONITOR dynamic field statistics
(PID.TID 0000.0001) // =======================================================
 cg2d: Sum(rhs),rhsMax =   1.39480344860483E-03  1.31108611192730E-02
 cg2d: Sum(rhs),rhsMax =   1.39502980515378E-03  1.31108793078223E-02
 cg2d: Sum(rhs),rhsMax =   1.39525628280571E-03  1.31108973401104E-02
 cg2d: Sum(rhs),rhsMax =   1.39548295319191E-03  1.31109152179762E-02
 cg2d: Sum(rhs),rhsMax =   1.39570976572443E-03  1.31109329415219E-02
 cg2d: Sum(rhs),rhsMax =   1.39593674602798E-03  1.31109505116156E-02
 cg2d: Sum(rhs),rhsMax =   1.39616383240096E-03  1.31109679268963E-02
 cg2d: Sum(rhs),rhsMax =   1.39639107516289E-03  1.31109851878754E-02
 cg2d: Sum(rhs),rhsMax =   1.39661844561895E-03  1.31110022945138E-02
 cg2d: Sum(rhs),rhsMax =   1.39684595026036E-03  1.31110192488576E-02
 cg2d: Sum(rhs),rhsMax =   1.39707360495095E-03  1.31110360475816E-02
 cg2d: Sum(rhs),rhsMax =   1.39730143318339E-03  1.31110526938053E-02
 cg2d: Sum(rhs),rhsMax =   1.39752938806037E-03  1.31110691863182E-02
 cg2d: Sum(rhs),rhsMax =   1.39775747854579E-03  1.31110855263210E-02
 cg2d: Sum(rhs),rhsMax =   1.39798569941377E-03  1.31111017134112E-02
 cg2d: Sum(rhs),rhsMax =   1.39821407276428E-03  1.31111177474136E-02
 cg2d: Sum(rhs),rhsMax =   1.39844253165097E-03  1.31111336293269E-02
 cg2d: Sum(rhs),rhsMax =   1.39867110831484E-03  1.31111493604394E-02
 cg2d: Sum(rhs),rhsMax =   1.39889987760438E-03  1.31111649352775E-02
 cg2d: Sum(rhs),rhsMax =   1.39912879250617E-03  1.31111803598006E-02
 cg2d: Sum(rhs),rhsMax =   1.39935781358800E-03  1.31111956323170E-02
 cg2d: Sum(rhs),rhsMax =   1.39958693944660E-03  1.31112107557711E-02
 cg2d: Sum(rhs),rhsMax =   1.39981623229873E-03  1.31112257238984E-02
 cg2d: Sum(rhs),rhsMax =   1.40004566533510E-03  1.31112405407343E-02
 cg2d: Sum(rhs),rhsMax =   1.40027523747709E-03  1.31112552082468E-02
 cg2d: Sum(rhs),rhsMax =   1.40050491252790E-03  1.31112697264377E-02
 cg2d: Sum(rhs),rhsMax =   1.40073474060053E-03  1.31112840888606E-02
 cg2d: Sum(rhs),rhsMax =   1.40096466357755E-03  1.31112983010380E-02
 cg2d: Sum(rhs),rhsMax =   1.40119473421132E-03  1.31113123653812E-02
 cg2d: Sum(rhs),rhsMax =   1.40142493678369E-03  1.31113262790966E-02
 cg2d: Sum(rhs),rhsMax =   1.40165519749795E-03  1.31113400400746E-02
 cg2d: Sum(rhs),rhsMax =   1.40188562783277E-03  1.31113536538092E-02
 cg2d: Sum(rhs),rhsMax =   1.40211617466925E-03  1.31113671163157E-02
 cg2d: Sum(rhs),rhsMax =   1.40234687909062E-03  1.31113804306483E-02
 cg2d: Sum(rhs),rhsMax =   1.40257768218312E-03  1.31113935906224E-02
 cg2d: Sum(rhs),rhsMax =   1.40280860691174E-03  1.31114066056824E-02
 cg2d: Sum(rhs),rhsMax =   1.40303962503831E-03  1.31114194694967E-02
 cg2d: Sum(rhs),rhsMax =   1.40327080458653E-03  1.31114321858963E-02
 cg2d: Sum(rhs),rhsMax =   1.40350211545684E-03  1.31114447493635E-02
 cg2d: Sum(rhs),rhsMax =   1.40373348750086E-03  1.31114571669738E-02
 cg2d: Sum(rhs),rhsMax =   1.40396503325151E-03  1.31114694360742E-02
 cg2d: Sum(rhs),rhsMax =   1.40419666679110E-03  1.31114815585438E-02
 cg2d: Sum(rhs),rhsMax =   1.40442847219870E-03  1.31114935278133E-02
 cg2d: Sum(rhs),rhsMax =   1.40466033475628E-03  1.31115053525447E-02
 cg2d: Sum(rhs),rhsMax =   1.40489235339075E-03  1.31115170264664E-02
 cg2d: Sum(rhs),rhsMax =   1.40512437974047E-03  1.31115285558854E-02
 cg2d: Sum(rhs),rhsMax =   1.40535653837253E-03  1.31115399341180E-02
 cg2d: Sum(rhs),rhsMax =   1.40558885794425E-03  1.31115511671080E-02
 cg2d: Sum(rhs),rhsMax =   1.40582133089449E-03  1.31115622498416E-02
 cg2d: Sum(rhs),rhsMax =   1.40605389454604E-03  1.31115731911581E-02
 cg2d: Sum(rhs),rhsMax =   1.40628659836798E-03  1.31115839794214E-02
 cg2d: Sum(rhs),rhsMax =   1.40651931188389E-03  1.31115946256812E-02
 cg2d: Sum(rhs),rhsMax =   1.40675221382435E-03  1.31116051209114E-02
 cg2d: Sum(rhs),rhsMax =   1.40698522104767E-03  1.31116154746014E-02
 cg2d: Sum(rhs),rhsMax =   1.40721835120929E-03  1.31116256755807E-02
 cg2d: Sum(rhs),rhsMax =   1.40745148811433E-03  1.31116357356407E-02
 cg2d: Sum(rhs),rhsMax =   1.40768483956525E-03  1.31116456453876E-02
 cg2d: Sum(rhs),rhsMax =   1.40791829077536E-03  1.31116554149142E-02
 cg2d: Sum(rhs),rhsMax =   1.40815181624800E-03  1.31116650305496E-02
 cg2d: Sum(rhs),rhsMax =   1.40838548691715E-03  1.31116745072968E-02
 cg2d: Sum(rhs),rhsMax =   1.40861915904382E-03  1.31116838351164E-02
 cg2d: Sum(rhs),rhsMax =   1.40885298210338E-03  1.31116930226425E-02
 cg2d: Sum(rhs),rhsMax =   1.40908692747412E-03  1.31117020574953E-02
 cg2d: Sum(rhs),rhsMax =   1.40932098747729E-03  1.31117109516681E-02
 cg2d: Sum(rhs),rhsMax =   1.40955518059605E-03  1.31117196982481E-02
 cg2d: Sum(rhs),rhsMax =   1.40978945773037E-03  1.31117283043384E-02
 cg2d: Sum(rhs),rhsMax =   1.41002382460035E-03  1.31117367620723E-02
 cg2d: Sum(rhs),rhsMax =   1.41025830073384E-03  1.31117450793083E-02
 cg2d: Sum(rhs),rhsMax =   1.41049284410768E-03  1.31117532479879E-02
 cg2d: Sum(rhs),rhsMax =   1.41072750975833E-03  1.31117612775193E-02
 cg2d: Sum(rhs),rhsMax =   1.41096227890089E-03  1.31117691590661E-02
 cg2d: Sum(rhs),rhsMax =   1.41119705788014E-03  1.31117769006222E-02
(PID.TID 0000.0001)      cg2d_init_res =   2.21745816913237E-03
(PID.TID 0000.0001)      cg2d_iters(min,last) =      -1     366
(PID.TID 0000.0001)      cg2d_last_res =   9.29388773016370E-08
(PID.TID 0000.0001) // =======================================================
(PID.TID 0000.0001) // Begin MONITOR dynamic field statistics
(PID.TID 0000.0001) // =======================================================
(PID.TID 0000.0001) %MON time_tsnumber                =                 14040
(PID.TID 0000.0001) %MON time_secondsf                =   1.6848000000000E+07
(PID.TID 0000.0001) %MON dynstat_eta_max              =   1.2483151718970E-01
(PID.TID 0000.0001) %MON dynstat_eta_min              =  -3.0716718816058E-01
(PID.TID 0000.0001) %MON dynstat_eta_mean             =  -8.8067954560735E-08
(PID.TID 0000.0001) %MON dynstat_eta_sd               =   1.1083851815722E-01
(PID.TID 0000.0001) %MON dynstat_eta_del2             =   6.7054945678347E-07
(PID.TID 0000.0001) %MON dynstat_uvel_max             =   1.1569412029926E-01
(PID.TID 0000.0001) %MON dynstat_uvel_min             =  -1.2295078233592E-01
(PID.TID 0000.0001) %MON dynstat_uvel_mean            =   3.1528438556279E-08
(PID.TID 0000.0001) %MON dynstat_uvel_sd              =   4.6063344778844E-02
(PID.TID 0000.0001) %MON dynstat_uvel_del2            =   1.0154799214781E-06
(PID.TID 0000.0001) %MON dynstat_vvel_max             =   1.3457707176258E-01
(PID.TID 0000.0001) %MON dynstat_vvel_min             =  -1.0988386731078E-01
(PID.TID 0000.0001) %MON dynstat_vvel_mean            =  -4.4322133062486E-08
(PID.TID 0000.0001) %MON dynstat_vvel_sd              =   4.3300698590115E-02
(PID.TID 0000.0001) %MON dynstat_vvel_del2            =   1.2877579286449E-06
(PID.TID 0000.0001) %MON dynstat_wvel_max             =   8.3339161099866E-09
(PID.TID 0000.0001) %MON dynstat_wvel_min             =  -8.9605923811905E-09
(PID.TID 0000.0001) %MON dynstat_wvel_mean            =  -1.1967083899505E-22
(PID.TID 0000.0001) %MON dynstat_wvel_sd              =   3.2066013569204E-09
(PID.TID 0000.0001) %MON dynstat_wvel_del2            =   3.4767149590712E-14
(PID.TID 0000.0001) %MON dynstat_theta_max            =   2.0000000000000E+01
(PID.TID 0000.0001) %MON dynstat_theta_min            =   2.0000000000000E+01
(PID.TID 0000.0001) %MON dynstat_theta_mean           =   1.9999999999999E+01
(PID.TID 0000.0001) %MON dynstat_theta_sd             =   1.1972645097557E-12
(PID.TID 0000.0001) %MON dynstat_theta_del2           =   0.0000000000000E+00
(PID.TID 0000.0001) %MON dynstat_salt_max             =   3.0000000000000E+01
(PID.TID 0000.0001) %MON dynstat_salt_min             =   3.0000000000000E+01
(PID.TID 0000.0001) %MON dynstat_salt_mean            =   2.9999999999998E+01
(PID.TID 0000.0001) %MON dynstat_salt_sd              =   2.1529444893531E-12
(PID.TID 0000.0001) %MON dynstat_salt_del2            =   0.0000000000000E+00
(PID.TID 0000.0001) %MON trAdv_CFL_u_max              =   2.9507441969229E-02
(PID.TID 0000.0001) %MON trAdv_CFL_v_max              =   3.2297135749709E-02
(PID.TID 0000.0001) %MON trAdv_CFL_w_max              =   2.1258800273964E-09
(PID.TID 0000.0001) %MON advcfl_uvel_max              =   2.9508187760622E-02
(PID.TID 0000.0001) %MON advcfl_vvel_max              =   3.2298497223019E-02
(PID.TID 0000.0001) %MON advcfl_wvel_max              =   4.3010843429714E-09
(PID.TID 0000.0001) %MON advcfl_W_hf_max              =   0.0000000000000E+00
(PID.TID 0000.0001) %MON pe_b_mean                    =   1.2569418855467E-05
(PID.TID 0000.0001) %MON ke_max                       =   9.1168433544436E-03
(PID.TID 0000.0001) %MON ke_mean                      =   1.9893955963658E-03
(PID.TID 0000.0001) %MON ke_vol                       =   7.2529629296391E+15
(PID.TID 0000.0001) %MON vort_r_min                   =  -4.1743605235170E-06
(PID.TID 0000.0001) %MON vort_r_max                   =   3.3650521095760E-06
(PID.TID 0000.0001) %MON vort_a_mean                  =   1.0615000000000E-04
(PID.TID 0000.0001) %MON vort_a_sd                    =   3.6306247559828E-06
(PID.TID 0000.0001) %MON vort_p_mean                  =   1.1210870169429E-04
(PID.TID 0000.0001) %MON vort_p_sd                    =   2.1066918436188E-05
(PID.TID 0000.0001) %MON surfExpan_theta_mean         =  -2.4508581649269E-21
(PID.TID 0000.0001) %MON surfExpan_salt_mean          =  -3.6725112122290E-21
(PID.TID 0000.0001) // =======================================================
(PID.TID 0000.0001) // End MONITOR dynamic field statistics
(PID.TID 0000.0001) // =======================================================
 cg2d: Sum(rhs),rhsMax =   1.41143200196478E-03  1.31117844917358E-02
 cg2d: Sum(rhs),rhsMax =   1.41166705796686E-03  1.31117919488004E-02
 cg2d: Sum(rhs),rhsMax =   1.41190219738534E-03  1.31117992567031E-02
 cg2d: Sum(rhs),rhsMax =   1.41213746457184E-03  1.31118064233471E-02
 cg2d: Sum(rhs),rhsMax =   1.41237282160103E-03  1.31118134416142E-02
 cg2d: Sum(rhs),rhsMax =   1.41260825199196E-03  1.31118203252951E-02
 cg2d: Sum(rhs),rhsMax =   1.41284380407265E-03  1.31118270615488E-02
 cg2d: Sum(rhs),rhsMax =   1.41307941225556E-03  1.31118336589581E-02
 cg2d: Sum(rhs),rhsMax =   1.41331510845025E-03  1.31118401064115E-02
 cg2d: Sum(rhs),rhsMax =   1.41355090540651E-03  1.31118464220129E-02
 cg2d: Sum(rhs),rhsMax =   1.41378685254421E-03  1.31118525882312E-02
 cg2d: Sum(rhs),rhsMax =   1.41402285962794E-03  1.31118586182206E-02
 cg2d: Sum(rhs),rhsMax =   1.41425898401327E-03  1.31118644995924E-02
 cg2d: Sum(rhs),rhsMax =   1.41449511153174E-03  1.31118702426359E-02
 cg2d: Sum(rhs),rhsMax =   1.41473139352258E-03  1.31118758437263E-02
 cg2d: Sum(rhs),rhsMax =   1.41496777640363E-03  1.31118813092089E-02
 cg2d: Sum(rhs),rhsMax =   1.41520428703615E-03  1.31118866252610E-02
 cg2d: Sum(rhs),rhsMax =   1.41544086351753E-03  1.31118918066921E-02
 cg2d: Sum(rhs),rhsMax =   1.41567751367610E-03  1.31118968413991E-02
 cg2d: Sum(rhs),rhsMax =   1.41591425148190E-03  1.31119017417694E-02
 cg2d: Sum(rhs),rhsMax =   1.41615100485052E-03  1.31119064958729E-02
 cg2d: Sum(rhs),rhsMax =   1.41638792431061E-03  1.31119111142561E-02
 cg2d: Sum(rhs),rhsMax =   1.41662497034226E-03  1.31119155857663E-02
 cg2d: Sum(rhs),rhsMax =   1.41686207812206E-03  1.31119199238971E-02
 cg2d: Sum(rhs),rhsMax =   1.41709933590207E-03  1.31119241195749E-02
 cg2d: Sum(rhs),rhsMax =   1.41733661907754E-03  1.31119281807394E-02
 cg2d: Sum(rhs),rhsMax =   1.41757402026286E-03  1.31119320936823E-02
 cg2d: Sum(rhs),rhsMax =   1.41781150768632E-03  1.31119358738028E-02
 cg2d: Sum(rhs),rhsMax =   1.41804910026314E-03  1.31119395089328E-02
 cg2d: Sum(rhs),rhsMax =   1.41828665940545E-03  1.31119430117080E-02
 cg2d: Sum(rhs),rhsMax =   1.41852442680546E-03  1.31119463662680E-02
 cg2d: Sum(rhs),rhsMax =   1.41876225609998E-03  1.31119495913108E-02
 cg2d: Sum(rhs),rhsMax =   1.41900021338342E-03  1.31119526710367E-02
 cg2d: Sum(rhs),rhsMax =   1.41923820811482E-03  1.31119556179780E-02
 cg2d: Sum(rhs),rhsMax =   1.41947631839765E-03  1.31119584221585E-02
 cg2d: Sum(rhs),rhsMax =   1.41971450620728E-03  1.31119610929066E-02
 cg2d: Sum(rhs),rhsMax =   1.41995282020845E-03  1.31119636191492E-02
 cg2d: Sum(rhs),rhsMax =   1.42019123225587E-03  1.31119660115789E-02
 cg2d: Sum(rhs),rhsMax =   1.42042974808633E-03  1.31119682611685E-02
 cg2d: Sum(rhs),rhsMax =   1.42066831509557E-03  1.31119703818109E-02
 cg2d: Sum(rhs),rhsMax =   1.42090701007778E-03  1.31119723580121E-02
 cg2d: Sum(rhs),rhsMax =   1.42114572401166E-03  1.31119742015431E-02
 cg2d: Sum(rhs),rhsMax =   1.42138458332377E-03  1.31119759033377E-02
 cg2d: Sum(rhs),rhsMax =   1.42162350808991E-03  1.31119774735736E-02
 cg2d: Sum(rhs),rhsMax =   1.42186253784508E-03  1.31119789010408E-02
 cg2d: Sum(rhs),rhsMax =   1.42210167190567E-03  1.31119801943455E-02
 cg2d: Sum(rhs),rhsMax =   1.42234092823182E-03  1.31119813484905E-02
 cg2d: Sum(rhs),rhsMax =   1.42258024544464E-03  1.31119823733972E-02
 cg2d: Sum(rhs),rhsMax =   1.42281973751253E-03  1.31119832543528E-02
 cg2d: Sum(rhs),rhsMax =   1.42305926762098E-03  1.31119840047071E-02
 cg2d: Sum(rhs),rhsMax =   1.42329893338671E-03  1.31119846138324E-02
 cg2d: Sum(rhs),rhsMax =   1.42353858613896E-03  1.31119850930388E-02
 cg2d: Sum(rhs),rhsMax =   1.42377838325419E-03  1.31119854292054E-02
 cg2d: Sum(rhs),rhsMax =   1.42401827835319E-03  1.31119856375773E-02
 cg2d: Sum(rhs),rhsMax =   1.42425830277727E-03  1.31119857035546E-02
 cg2d: Sum(rhs),rhsMax =   1.42449845773556E-03  1.31119856402765E-02
 cg2d: Sum(rhs),rhsMax =   1.42473866932420E-03  1.31119854351996E-02
 cg2d: Sum(rhs),rhsMax =   1.42497899088440E-03  1.31119851030070E-02
 cg2d: Sum(rhs),rhsMax =   1.42521944582445E-03  1.31119846295675E-02
 cg2d: Sum(rhs),rhsMax =   1.42545995795989E-03  1.31119840262017E-02
 cg2d: Sum(rhs),rhsMax =   1.42570059107856E-03  1.31119832812925E-02
 cg2d: Sum(rhs),rhsMax =   1.42594131830197E-03  1.31119824103669E-02
 cg2d: Sum(rhs),rhsMax =   1.42618219236347E-03  1.31119813985979E-02
 cg2d: Sum(rhs),rhsMax =   1.42642304879757E-03  1.31119802591662E-02
 cg2d: Sum(rhs),rhsMax =   1.42666407125088E-03  1.31119789788311E-02
 cg2d: Sum(rhs),rhsMax =   1.42690519233461E-03  1.31119775715590E-02
 cg2d: Sum(rhs),rhsMax =   1.42714646621296E-03  1.31119760232808E-02
 cg2d: Sum(rhs),rhsMax =   1.42738782680966E-03  1.31119743481286E-02
 cg2d: Sum(rhs),rhsMax =   1.42762936440665E-03  1.31119725334419E-02
 cg2d: Sum(rhs),rhsMax =   1.42787096804029E-03  1.31119705921569E-02
 cg2d: Sum(rhs),rhsMax =   1.42811273276744E-03  1.31119685110080E-02
 cg2d: Sum(rhs),rhsMax =   1.42835451810422E-03  1.31119663035000E-02
(PID.TID 0000.0001)      cg2d_init_res =   2.20479531491707E-03
(PID.TID 0000.0001)      cg2d_iters(min,last) =      -1     366
(PID.TID 0000.0001)      cg2d_last_res =   9.23383374989793E-08
(PID.TID 0000.0001) // =======================================================
(PID.TID 0000.0001) // Begin MONITOR dynamic field statistics
(PID.TID 0000.0001) // =======================================================
(PID.TID 0000.0001) %MON time_tsnumber                =                 14112
(PID.TID 0000.0001) %MON time_secondsf                =   1.6934400000000E+07
(PID.TID 0000.0001) %MON dynstat_eta_max              =   1.2513388709755E-01
(PID.TID 0000.0001) %MON dynstat_eta_min              =  -3.0791783018206E-01
(PID.TID 0000.0001) %MON dynstat_eta_mean             =  -8.9140174236877E-08
(PID.TID 0000.0001) %MON dynstat_eta_sd               =   1.1104008339005E-01
(PID.TID 0000.0001) %MON dynstat_eta_del2             =   6.7196796907818E-07
(PID.TID 0000.0001) %MON dynstat_uvel_max             =   1.1606112837303E-01
(PID.TID 0000.0001) %MON dynstat_uvel_min             =  -1.2317180471635E-01
(PID.TID 0000.0001) %MON dynstat_uvel_mean            =   3.0928808402488E-08
(PID.TID 0000.0001) %MON dynstat_uvel_sd              =   4.6158900290117E-02
(PID.TID 0000.0001) %MON dynstat_uvel_del2            =   1.0175466349220E-06
(PID.TID 0000.0001) %MON dynstat_vvel_max             =   1.3498380447353E-01
(PID.TID 0000.0001) %MON dynstat_vvel_min             =  -1.1026116942830E-01
(PID.TID 0000.0001) %MON dynstat_vvel_mean            =  -4.8075398994521E-08
(PID.TID 0000.0001) %MON dynstat_vvel_sd              =   4.3400132433325E-02
(PID.TID 0000.0001) %MON dynstat_vvel_del2            =   1.2876964639455E-06
(PID.TID 0000.0001) %MON dynstat_wvel_max             =   8.5802877118113E-09
(PID.TID 0000.0001) %MON dynstat_wvel_min             =  -8.9526673429646E-09
(PID.TID 0000.0001) %MON dynstat_wvel_mean            =  -1.3066256211637E-21
(PID.TID 0000.0001) %MON dynstat_wvel_sd              =   3.1828132560989E-09
(PID.TID 0000.0001) %MON dynstat_wvel_del2            =   3.4445400039259E-14
(PID.TID 0000.0001) %MON dynstat_theta_max            =   2.0000000000000E+01
(PID.TID 0000.0001) %MON dynstat_theta_min            =   2.0000000000000E+01
(PID.TID 0000.0001) %MON dynstat_theta_mean           =   1.9999999999999E+01
(PID.TID 0000.0001) %MON dynstat_theta_sd             =   1.1972645097557E-12
(PID.TID 0000.0001) %MON dynstat_theta_del2           =   0.0000000000000E+00
(PID.TID 0000.0001) %MON dynstat_salt_max             =   3.0000000000000E+01
(PID.TID 0000.0001) %MON dynstat_salt_min             =   3.0000000000000E+01
(PID.TID 0000.0001) %MON dynstat_salt_mean            =   2.9999999999998E+01
(PID.TID 0000.0001) %MON dynstat_salt_sd              =   2.1529444893531E-12
(PID.TID 0000.0001) %MON dynstat_salt_del2            =   0.0000000000000E+00
(PID.TID 0000.0001) %MON trAdv_CFL_u_max              =   2.9560505084198E-02
(PID.TID 0000.0001) %MON trAdv_CFL_v_max              =   3.2394762154510E-02
(PID.TID 0000.0001) %MON trAdv_CFL_w_max              =   2.1906196295158E-09
(PID.TID 0000.0001) %MON advcfl_uvel_max              =   2.9561233131923E-02
(PID.TID 0000.0001) %MON advcfl_vvel_max              =   3.2396113073648E-02
(PID.TID 0000.0001) %MON advcfl_wvel_max              =   4.2972803246230E-09
(PID.TID 0000.0001) %MON advcfl_W_hf_max              =   0.0000000000000E+00
(PID.TID 0000.0001) %MON pe_b_mean                    =   1.2615176622340E-05
(PID.TID 0000.0001) %MON ke_max                       =   9.1708967993819E-03
(PID.TID 0000.0001) %MON ke_mean                      =   1.9980730296238E-03
(PID.TID 0000.0001) %MON ke_vol                       =   7.2529629296391E+15
(PID.TID 0000.0001) %MON vort_r_min                   =  -4.1745704692485E-06
(PID.TID 0000.0001) %MON vort_r_max                   =   3.3685986649308E-06
(PID.TID 0000.0001) %MON vort_a_mean                  =   1.0615000000000E-04
(PID.TID 0000.0001) %MON vort_a_sd                    =   3.6309015083157E-06
(PID.TID 0000.0001) %MON vort_p_mean                  =   1.1210870169429E-04
(PID.TID 0000.0001) %MON vort_p_sd                    =   2.1066987969461E-05
(PID.TID 0000.0001) %MON surfExpan_theta_mean         =  -2.6258144607332E-20
(PID.TID 0000.0001) %MON surfExpan_salt_mean          =  -3.9365117242526E-20
(PID.TID 0000.0001) // =======================================================
(PID.TID 0000.0001) // End MONITOR dynamic field statistics
(PID.TID 0000.0001) // =======================================================
 cg2d: Sum(rhs),rhsMax =   1.42859650820606E-03  1.31119639565052E-02
 cg2d: Sum(rhs),rhsMax =   1.42883853943535E-03  1.31119614823148E-02
 cg2d: Sum(rhs),rhsMax =   1.42908074504130E-03  1.31119588712823E-02
 cg2d: Sum(rhs),rhsMax =   1.42932303074063E-03  1.31119561332312E-02
 cg2d: Sum(rhs),rhsMax =   1.42956547964388E-03  1.31119532563129E-02
 cg2d: Sum(rhs),rhsMax =   1.42980789012268E-03  1.31119502496591E-02
 cg2d: Sum(rhs),rhsMax =   1.43005056335716E-03  1.31119471131398E-02
 cg2d: Sum(rhs),rhsMax =   1.43029334457735E-03  1.31119438454295E-02
 cg2d: Sum(rhs),rhsMax =   1.43053624496245E-03  1.31119404431558E-02
 cg2d: Sum(rhs),rhsMax =   1.43077928365351E-03  1.31119369118766E-02
 cg2d: Sum(rhs),rhsMax =   1.43102235417815E-03  1.31119332467612E-02
 cg2d: Sum(rhs),rhsMax =   1.43126565515127E-03  1.31119294502828E-02
 cg2d: Sum(rhs),rhsMax =   1.43150904447685E-03  1.31119255248587E-02
 cg2d: Sum(rhs),rhsMax =   1.43175259932721E-03  1.31119214658564E-02
 cg2d: Sum(rhs),rhsMax =   1.43199619329633E-03  1.31119172787173E-02
 cg2d: Sum(rhs),rhsMax =   1.43223997588582E-03  1.31119129578385E-02
 cg2d: Sum(rhs),rhsMax =   1.43248384094923E-03  1.31119085093539E-02
 cg2d: Sum(rhs),rhsMax =   1.43272786149362E-03  1.31119039299395E-02
 cg2d: Sum(rhs),rhsMax =   1.43297205493954E-03  1.31118992191831E-02
 cg2d: Sum(rhs),rhsMax =   1.43321638982237E-03  1.31118943766980E-02
 cg2d: Sum(rhs),rhsMax =   1.43346085650499E-03  1.31118894070893E-02
 cg2d: Sum(rhs),rhsMax =   1.43370545307715E-03  1.31118843068088E-02
 cg2d: Sum(rhs),rhsMax =   1.43395020573460E-03  1.31118790764872E-02
 cg2d: Sum(rhs),rhsMax =   1.43419507742851E-03  1.31118737162440E-02
 cg2d: Sum(rhs),rhsMax =   1.43444011878431E-03  1.31118682272983E-02
 cg2d: Sum(rhs),rhsMax =   1.43468524825964E-03  1.31118626094954E-02
 cg2d: Sum(rhs),rhsMax =   1.43493057277319E-03  1.31118568598103E-02
 cg2d: Sum(rhs),rhsMax =   1.43517601511976E-03  1.31118509830217E-02
 cg2d: Sum(rhs),rhsMax =   1.43542161635199E-03  1.31118449761830E-02
 cg2d: Sum(rhs),rhsMax =   1.43566737567241E-03  1.31118388425265E-02
 cg2d: Sum(rhs),rhsMax =   1.43591329313277E-03  1.31118325788818E-02
 cg2d: Sum(rhs),rhsMax =   1.43615936795452E-03  1.31118261877569E-02
 cg2d: Sum(rhs),rhsMax =   1.43640555300824E-03  1.31118196673454E-02
 cg2d: Sum(rhs),rhsMax =   1.43665193277213E-03  1.31118130194381E-02
 cg2d: Sum(rhs),rhsMax =   1.43689831848352E-03  1.31118062451125E-02
 cg2d: Sum(rhs),rhsMax =   1.43714496492882E-03  1.31117993383192E-02
 cg2d: Sum(rhs),rhsMax =   1.43739177120144E-03  1.31117923057241E-02
 cg2d: Sum(rhs),rhsMax =   1.43763880407644E-03  1.31117851447288E-02
 cg2d: Sum(rhs),rhsMax =   1.43788592963761E-03  1.31117778583391E-02
 cg2d: Sum(rhs),rhsMax =   1.43813330302370E-03  1.31117704426184E-02
 cg2d: Sum(rhs),rhsMax =   1.43838071598859E-03  1.31117629019748E-02
 cg2d: Sum(rhs),rhsMax =   1.43862838452402E-03  1.31117552331674E-02
 cg2d: Sum(rhs),rhsMax =   1.43887619903975E-03  1.31117474347275E-02
 cg2d: Sum(rhs),rhsMax =   1.43912420870374E-03  1.31117395127574E-02
 cg2d: Sum(rhs),rhsMax =   1.43937240006508E-03  1.31117314617143E-02
 cg2d: Sum(rhs),rhsMax =   1.43962074797499E-03  1.31117232866160E-02
 cg2d: Sum(rhs),rhsMax =   1.43986928566288E-03  1.31117149830898E-02
 cg2d: Sum(rhs),rhsMax =   1.44011791133083E-03  1.31117065545355E-02
 cg2d: Sum(rhs),rhsMax =   1.44036679110544E-03  1.31116979981106E-02
 cg2d: Sum(rhs),rhsMax =   1.44061580379155E-03  1.31116893171589E-02
 cg2d: Sum(rhs),rhsMax =   1.44086502893376E-03  1.31116805093241E-02
 cg2d: Sum(rhs),rhsMax =   1.44111443813596E-03  1.31116715750960E-02
 cg2d: Sum(rhs),rhsMax =   1.44136406884756E-03  1.31116625157877E-02
 cg2d: Sum(rhs),rhsMax =   1.44161382802397E-03  1.31116533322106E-02
 cg2d: Sum(rhs),rhsMax =   1.44186386076300E-03  1.31116440214740E-02
 cg2d: Sum(rhs),rhsMax =   1.44211404367532E-03  1.31116345872608E-02
 cg2d: Sum(rhs),rhsMax =   1.44236433372213E-03  1.31116250286010E-02
 cg2d: Sum(rhs),rhsMax =   1.44261491203092E-03  1.31116153393566E-02
 cg2d: Sum(rhs),rhsMax =   1.44286564134869E-03  1.31116055303989E-02
 cg2d: Sum(rhs),rhsMax =   1.44311661285303E-03  1.31115955942304E-02
 cg2d: Sum(rhs),rhsMax =   1.44336774602178E-03  1.31115855360789E-02
 cg2d: Sum(rhs),rhsMax =   1.44361911055823E-03  1.31115753509822E-02
 cg2d: Sum(rhs),rhsMax =   1.44387057515820E-03  1.31115650442240E-02
 cg2d: Sum(rhs),rhsMax =   1.44412235574493E-03  1.31115546088452E-02
 cg2d: Sum(rhs),rhsMax =   1.44437427740579E-03  1.31115440537063E-02
 cg2d: Sum(rhs),rhsMax =   1.44462643303109E-03  1.31115333718315E-02
 cg2d: Sum(rhs),rhsMax =   1.44487880263344E-03  1.31115225692804E-02
 cg2d: Sum(rhs),rhsMax =   1.44513140249022E-03  1.31115116404813E-02
 cg2d: Sum(rhs),rhsMax =   1.44538410885605E-03  1.31115005893400E-02
 cg2d: Sum(rhs),rhsMax =   1.44563710579675E-03  1.31114894110686E-02
 cg2d: Sum(rhs),rhsMax =   1.44589028892774E-03  1.31114781150555E-02
 cg2d: Sum(rhs),rhsMax =   1.44614374064401E-03  1.31114666912684E-02
(PID.TID 0000.0001)      cg2d_init_res =   2.19406374602112E-03
(PID.TID 0000.0001)      cg2d_iters(min,last) =      -1     366
(PID.TID 0000.0001)      cg2d_last_res =   9.25041682503984E-08
(PID.TID 0000.0001) // =======================================================
(PID.TID 0000.0001) // Begin MONITOR dynamic field statistics
(PID.TID 0000.0001) // =======================================================
(PID.TID 0000.0001) %MON time_tsnumber                =                 14184
(PID.TID 0000.0001) %MON time_secondsf                =   1.7020800000000E+07
(PID.TID 0000.0001) %MON dynstat_eta_max              =   1.2540357116092E-01
(PID.TID 0000.0001) %MON dynstat_eta_min              =  -3.0866636061503E-01
(PID.TID 0000.0001) %MON dynstat_eta_mean             =  -9.0247393049353E-08
(PID.TID 0000.0001) %MON dynstat_eta_sd               =   1.1124012500721E-01
(PID.TID 0000.0001) %MON dynstat_eta_del2             =   6.7334769727464E-07
(PID.TID 0000.0001) %MON dynstat_uvel_max             =   1.1645942688273E-01
(PID.TID 0000.0001) %MON dynstat_uvel_min             =  -1.2338759949071E-01
(PID.TID 0000.0001) %MON dynstat_uvel_mean            =   2.8121816586525E-08
(PID.TID 0000.0001) %MON dynstat_uvel_sd              =   4.6258482206058E-02
(PID.TID 0000.0001) %MON dynstat_uvel_del2            =   1.0196363658215E-06
(PID.TID 0000.0001) %MON dynstat_vvel_max             =   1.3538803584718E-01
(PID.TID 0000.0001) %MON dynstat_vvel_min             =  -1.1063628778441E-01
(PID.TID 0000.0001) %MON dynstat_vvel_mean            =  -5.1579828123087E-08
(PID.TID 0000.0001) %MON dynstat_vvel_sd              =   4.3493677066476E-02
(PID.TID 0000.0001) %MON dynstat_vvel_del2            =   1.2873129742462E-06
(PID.TID 0000.0001) %MON dynstat_wvel_max             =   8.7397046358092E-09
(PID.TID 0000.0001) %MON dynstat_wvel_min             =  -8.9541721995920E-09
(PID.TID 0000.0001) %MON dynstat_wvel_mean            =  -1.0096407480424E-20
(PID.TID 0000.0001) %MON dynstat_wvel_sd              =   3.1557569888947E-09
(PID.TID 0000.0001) %MON dynstat_wvel_del2            =   3.4194338488860E-14
(PID.TID 0000.0001) %MON dynstat_theta_max            =   2.0000000000000E+01
(PID.TID 0000.0001) %MON dynstat_theta_min            =   2.0000000000000E+01
(PID.TID 0000.0001) %MON dynstat_theta_mean           =   1.9999999999999E+01
(PID.TID 0000.0001) %MON dynstat_theta_sd             =   1.1972645097557E-12
(PID.TID 0000.0001) %MON dynstat_theta_del2           =   0.0000000000000E+00
(PID.TID 0000.0001) %MON dynstat_salt_max             =   3.0000000000000E+01
(PID.TID 0000.0001) %MON dynstat_salt_min             =   3.0000000000000E+01
(PID.TID 0000.0001) %MON dynstat_salt_mean            =   2.9999999999998E+01
(PID.TID 0000.0001) %MON dynstat_salt_sd              =   2.1529444893531E-12
(PID.TID 0000.0001) %MON dynstat_salt_del2            =   0.0000000000000E+00
(PID.TID 0000.0001) %MON trAdv_CFL_u_max              =   2.9612312961583E-02
(PID.TID 0000.0001) %MON trAdv_CFL_v_max              =   3.2491783772157E-02
(PID.TID 0000.0001) %MON trAdv_CFL_w_max              =   2.2321506385716E-09
(PID.TID 0000.0001) %MON advcfl_uvel_max              =   2.9613023877770E-02
(PID.TID 0000.0001) %MON advcfl_vvel_max              =   3.2493128603322E-02
(PID.TID 0000.0001) %MON advcfl_wvel_max              =   4.2980026558042E-09
(PID.TID 0000.0001) %MON advcfl_W_hf_max              =   0.0000000000000E+00
(PID.TID 0000.0001) %MON pe_b_mean                    =   1.2660670706731E-05
(PID.TID 0000.0001) %MON ke_max                       =   9.2244996537571E-03
(PID.TID 0000.0001) %MON ke_mean                      =   2.0066997964477E-03
(PID.TID 0000.0001) %MON ke_vol                       =   7.2529629296391E+15
(PID.TID 0000.0001) %MON vort_r_min                   =  -4.1745447954369E-06
(PID.TID 0000.0001) %MON vort_r_max                   =   3.3707926783588E-06
(PID.TID 0000.0001) %MON vort_a_mean                  =   1.0615000000000E-04
(PID.TID 0000.0001) %MON vort_a_sd                    =   3.6311729033302E-06
(PID.TID 0000.0001) %MON vort_p_mean                  =   1.1210870169429E-04
(PID.TID 0000.0001) %MON vort_p_sd                    =   2.1067052901724E-05
(PID.TID 0000.0001) %MON surfExpan_theta_mean         =  -2.0202702995659E-19
(PID.TID 0000.0001) %MON surfExpan_salt_mean          =  -3.0304646263862E-19
(PID.TID 0000.0001) // =======================================================
(PID.TID 0000.0001) // End MONITOR dynamic field statistics
(PID.TID 0000.0001) // =======================================================
 cg2d: Sum(rhs),rhsMax =   1.44639737678321E-03  1.31114551486631E-02
 cg2d: Sum(rhs),rhsMax =   1.44665123124671E-03  1.31114434792382E-02
 cg2d: Sum(rhs),rhsMax =   1.44690530474283E-03  1.31114316907275E-02
 cg2d: Sum(rhs),rhsMax =   1.44715956841044E-03  1.31114197770190E-02
 cg2d: Sum(rhs),rhsMax =   1.44741409110447E-03  1.31114077424928E-02
 cg2d: Sum(rhs),rhsMax =   1.44766885420494E-03  1.31113955821963E-02
 cg2d: Sum(rhs),rhsMax =   1.44792383661044E-03  1.31113833034559E-02
 cg2d: Sum(rhs),rhsMax =   1.44817905996292E-03  1.31113708995816E-02
 cg2d: Sum(rhs),rhsMax =   1.44843450495198E-03  1.31113583767826E-02
 cg2d: Sum(rhs),rhsMax =   1.44869017247942E-03  1.31113457289838E-02
 cg2d: Sum(rhs),rhsMax =   1.44894607316797E-03  1.31113329625780E-02
 cg2d: Sum(rhs),rhsMax =   1.44920214765173E-03  1.31113200722085E-02
 cg2d: Sum(rhs),rhsMax =   1.44945849672024E-03  1.31113070618286E-02
 cg2d: Sum(rhs),rhsMax =   1.44971510556878E-03  1.31112939277657E-02
 cg2d: Sum(rhs),rhsMax =   1.44997194788979E-03  1.31112806753860E-02
 cg2d: Sum(rhs),rhsMax =   1.45022897837371E-03  1.31112672996339E-02
 cg2d: Sum(rhs),rhsMax =   1.45048627878169E-03  1.31112538044435E-02
 cg2d: Sum(rhs),rhsMax =   1.45074382168822E-03  1.31112401874310E-02
 cg2d: Sum(rhs),rhsMax =   1.45100160546910E-03  1.31112264504458E-02
 cg2d: Sum(rhs),rhsMax =   1.45125960421717E-03  1.31112125920703E-02
 cg2d: Sum(rhs),rhsMax =   1.45151786110266E-03  1.31111986134529E-02
 cg2d: Sum(rhs),rhsMax =   1.45177638263150E-03  1.31111845152607E-02
 cg2d: Sum(rhs),rhsMax =   1.45203511585902E-03  1.31111702958223E-02
 cg2d: Sum(rhs),rhsMax =   1.45229413550799E-03  1.31111559568767E-02
 cg2d: Sum(rhs),rhsMax =   1.45255327989501E-03  1.31111414981954E-02
 cg2d: Sum(rhs),rhsMax =   1.45281273267512E-03  1.31111269174962E-02
 cg2d: Sum(rhs),rhsMax =   1.45307246510495E-03  1.31111122190553E-02
 cg2d: Sum(rhs),rhsMax =   1.45333250336198E-03  1.31110973998994E-02
 cg2d: Sum(rhs),rhsMax =   1.45359270249047E-03  1.31110824632032E-02
 cg2d: Sum(rhs),rhsMax =   1.45385323699572E-03  1.31110674057640E-02
 cg2d: Sum(rhs),rhsMax =   1.45411383268155E-03  1.31110522309103E-02
 cg2d: Sum(rhs),rhsMax =   1.45437483529928E-03  1.31110369340189E-02
 cg2d: Sum(rhs),rhsMax =   1.45463609372813E-03  1.31110215202085E-02
 cg2d: Sum(rhs),rhsMax =   1.45489758373353E-03  1.31110059868803E-02
 cg2d: Sum(rhs),rhsMax =   1.45515936261992E-03  1.31109903348613E-02
 cg2d: Sum(rhs),rhsMax =   1.45542144260395E-03  1.31109745647924E-02
 cg2d: Sum(rhs),rhsMax =   1.45568375819419E-03  1.31109586749136E-02
 cg2d: Sum(rhs),rhsMax =   1.45594624196653E-03  1.31109426665863E-02
 cg2d: Sum(rhs),rhsMax =   1.45620908601525E-03  1.31109265424713E-02
 cg2d: Sum(rhs),rhsMax =   1.45647218001767E-03  1.31109102976680E-02
 cg2d: Sum(rhs),rhsMax =   1.45673553922750E-03  1.31108939373948E-02
 cg2d: Sum(rhs),rhsMax =   1.45699913328856E-03  1.31108774570859E-02
 cg2d: Sum(rhs),rhsMax =   1.45726303153634E-03  1.31108608610169E-02
 cg2d: Sum(rhs),rhsMax =   1.45752714123826E-03  1.31108441453150E-02
 cg2d: Sum(rhs),rhsMax =   1.45779147499126E-03  1.31108273127488E-02
 cg2d: Sum(rhs),rhsMax =   1.45805615153325E-03  1.31108103625922E-02
 cg2d: Sum(rhs),rhsMax =   1.45832112068568E-03  1.31107932971538E-02
 cg2d: Sum(rhs),rhsMax =   1.45858634766002E-03  1.31107761122513E-02
 cg2d: Sum(rhs),rhsMax =   1.45885177131553E-03  1.31107588116173E-02
 cg2d: Sum(rhs),rhsMax =   1.45911753827588E-03  1.31107413932331E-02
 cg2d: Sum(rhs),rhsMax =   1.45938358994268E-03  1.31107238599139E-02
 cg2d: Sum(rhs),rhsMax =   1.45964993075557E-03  1.31107062076472E-02
 cg2d: Sum(rhs),rhsMax =   1.45991645123438E-03  1.31106884409138E-02
 cg2d: Sum(rhs),rhsMax =   1.46018330305648E-03  1.31106705566047E-02
 cg2d: Sum(rhs),rhsMax =   1.46045042172793E-03  1.31106525566868E-02
 cg2d: Sum(rhs),rhsMax =   1.46071781575092E-03  1.31106344394820E-02
 cg2d: Sum(rhs),rhsMax =   1.46098543686818E-03  1.31106162069725E-02
 cg2d: Sum(rhs),rhsMax =   1.46125333256541E-03  1.31105978589883E-02
 cg2d: Sum(rhs),rhsMax =   1.46152155650460E-03  1.31105793959596E-02
 cg2d: Sum(rhs),rhsMax =   1.46178997300564E-03  1.31105608151402E-02
 cg2d: Sum(rhs),rhsMax =   1.46205871904546E-03  1.31105421205822E-02
 cg2d: Sum(rhs),rhsMax =   1.46232773684796E-03  1.31105233089879E-02
 cg2d: Sum(rhs),rhsMax =   1.46259704897095E-03  1.31105043847064E-02
 cg2d: Sum(rhs),rhsMax =   1.46286663237582E-03  1.31104853422661E-02
 cg2d: Sum(rhs),rhsMax =   1.46313647772595E-03  1.31104661874981E-02
 cg2d: Sum(rhs),rhsMax =   1.46340662106927E-03  1.31104469153221E-02
 cg2d: Sum(rhs),rhsMax =   1.46367692849600E-03  1.31104275308230E-02
 cg2d: Sum(rhs),rhsMax =   1.46394760361471E-03  1.31104080282087E-02
 cg2d: Sum(rhs),rhsMax =   1.46421851742399E-03  1.31103884149024E-02
 cg2d: Sum(rhs),rhsMax =   1.46448976913527E-03  1.31103686843635E-02
 cg2d: Sum(rhs),rhsMax =   1.46476117825362E-03  1.31103488424219E-02
 cg2d: Sum(rhs),rhsMax =   1.46503293541275E-03  1.31103288832726E-02
(PID.TID 0000.0001)      cg2d_init_res =   2.18409256873597E-03
(PID.TID 0000.0001)      cg2d_iters(min,last) =      -1     366
(PID.TID 0000.0001)      cg2d_last_res =   9.39699250435495E-08
(PID.TID 0000.0001) // =======================================================
(PID.TID 0000.0001) // Begin MONITOR dynamic field statistics
(PID.TID 0000.0001) // =======================================================
(PID.TID 0000.0001) %MON time_tsnumber                =                 14256
(PID.TID 0000.0001) %MON time_secondsf                =   1.7107200000000E+07
(PID.TID 0000.0001) %MON dynstat_eta_max              =   1.2564191798415E-01
(PID.TID 0000.0001) %MON dynstat_eta_min              =  -3.0941385277917E-01
(PID.TID 0000.0001) %MON dynstat_eta_mean             =  -9.1419131960851E-08
(PID.TID 0000.0001) %MON dynstat_eta_sd               =   1.1143887396713E-01
(PID.TID 0000.0001) %MON dynstat_eta_del2             =   6.7469095189883E-07
(PID.TID 0000.0001) %MON dynstat_uvel_max             =   1.1688464807989E-01
(PID.TID 0000.0001) %MON dynstat_uvel_min             =  -1.2359833654170E-01
(PID.TID 0000.0001) %MON dynstat_uvel_mean            =   2.3305689469874E-08
(PID.TID 0000.0001) %MON dynstat_uvel_sd              =   4.6361764348356E-02
(PID.TID 0000.0001) %MON dynstat_uvel_del2            =   1.0217347201576E-06
(PID.TID 0000.0001) %MON dynstat_vvel_max             =   1.3579118298338E-01
(PID.TID 0000.0001) %MON dynstat_vvel_min             =  -1.1100581193269E-01
(PID.TID 0000.0001) %MON dynstat_vvel_mean            =  -5.4491278671844E-08
(PID.TID 0000.0001) %MON dynstat_vvel_sd              =   4.3581776463797E-02
(PID.TID 0000.0001) %MON dynstat_vvel_del2            =   1.2866736385766E-06
(PID.TID 0000.0001) %MON dynstat_wvel_max             =   8.8104608835420E-09
(PID.TID 0000.0001) %MON dynstat_wvel_min             =  -8.9595732977614E-09
(PID.TID 0000.0001) %MON dynstat_wvel_mean            =   1.0800143685493E-20
(PID.TID 0000.0001) %MON dynstat_wvel_sd              =   3.1264459121199E-09
(PID.TID 0000.0001) %MON dynstat_wvel_del2            =   3.4032774510718E-14
(PID.TID 0000.0001) %MON dynstat_theta_max            =   2.0000000000000E+01
(PID.TID 0000.0001) %MON dynstat_theta_min            =   2.0000000000000E+01
(PID.TID 0000.0001) %MON dynstat_theta_mean           =   1.9999999999999E+01
(PID.TID 0000.0001) %MON dynstat_theta_sd             =   1.1972645097557E-12
(PID.TID 0000.0001) %MON dynstat_theta_del2           =   0.0000000000000E+00
(PID.TID 0000.0001) %MON dynstat_salt_max             =   3.0000000000000E+01
(PID.TID 0000.0001) %MON dynstat_salt_min             =   3.0000000000000E+01
(PID.TID 0000.0001) %MON dynstat_salt_mean            =   2.9999999999998E+01
(PID.TID 0000.0001) %MON dynstat_salt_sd              =   2.1529444893531E-12
(PID.TID 0000.0001) %MON dynstat_salt_del2            =   0.0000000000000E+00
(PID.TID 0000.0001) %MON trAdv_CFL_u_max              =   2.9662906460633E-02
(PID.TID 0000.0001) %MON trAdv_CFL_v_max              =   3.2588540231661E-02
(PID.TID 0000.0001) %MON trAdv_CFL_w_max              =   2.2499239652398E-09
(PID.TID 0000.0001) %MON advcfl_uvel_max              =   2.9663600770009E-02
(PID.TID 0000.0001) %MON advcfl_vvel_max              =   3.2589883916012E-02
(PID.TID 0000.0001) %MON advcfl_wvel_max              =   4.3005951829255E-09
(PID.TID 0000.0001) %MON advcfl_W_hf_max              =   0.0000000000000E+00
(PID.TID 0000.0001) %MON pe_b_mean                    =   1.2705951904038E-05
(PID.TID 0000.0001) %MON ke_max                       =   9.2778429238158E-03
(PID.TID 0000.0001) %MON ke_mean                      =   2.0152796568270E-03
(PID.TID 0000.0001) %MON ke_vol                       =   7.2529629296391E+15
(PID.TID 0000.0001) %MON vort_r_min                   =  -4.1743011129698E-06
(PID.TID 0000.0001) %MON vort_r_max                   =   3.3721068661203E-06
(PID.TID 0000.0001) %MON vort_a_mean                  =   1.0615000000000E-04
(PID.TID 0000.0001) %MON vort_a_sd                    =   3.6314392750341E-06
(PID.TID 0000.0001) %MON vort_p_mean                  =   1.1210870169429E-04
(PID.TID 0000.0001) %MON vort_p_sd                    =   2.1067113838453E-05
(PID.TID 0000.0001) %MON surfExpan_theta_mean         =   2.1586607678550E-19
(PID.TID 0000.0001) %MON surfExpan_salt_mean          =   3.2380347358699E-19
(PID.TID 0000.0001) // =======================================================
(PID.TID 0000.0001) // End MONITOR dynamic field statistics
(PID.TID 0000.0001) // =======================================================
 cg2d: Sum(rhs),rhsMax =   1.46530496632467E-03  1.31103088117939E-02
 cg2d: Sum(rhs),rhsMax =   1.46557725636335E-03  1.31102886246782E-02
 cg2d: Sum(rhs),rhsMax =   1.46584987741741E-03  1.31102683266717E-02
 cg2d: Sum(rhs),rhsMax =   1.46612277953947E-03  1.31102479119405E-02
 cg2d: Sum(rhs),rhsMax =   1.46639593447009E-03  1.31102273858043E-02
 cg2d: Sum(rhs),rhsMax =   1.46666931214898E-03  1.31102067444991E-02
 cg2d: Sum(rhs),rhsMax =   1.46694301327665E-03  1.31101859912874E-02
 cg2d: Sum(rhs),rhsMax =   1.46721698709973E-03  1.31101651226181E-02
 cg2d: Sum(rhs),rhsMax =   1.46749126468241E-03  1.31101441434585E-02
 cg2d: Sum(rhs),rhsMax =   1.46776563187818E-03  1.31101230493554E-02
 cg2d: Sum(rhs),rhsMax =   1.46804041783766E-03  1.31101018448480E-02
 cg2d: Sum(rhs),rhsMax =   1.46831549252044E-03  1.31100805242351E-02
 cg2d: Sum(rhs),rhsMax =   1.46859084387160E-03  1.31100590943380E-02
 cg2d: Sum(rhs),rhsMax =   1.46886642512034E-03  1.31100375489826E-02
 cg2d: Sum(rhs),rhsMax =   1.46914230822764E-03  1.31100158937672E-02
 cg2d: Sum(rhs),rhsMax =   1.46941845643487E-03  1.31099941231091E-02
 cg2d: Sum(rhs),rhsMax =   1.46969485961171E-03  1.31099722438326E-02
 cg2d: Sum(rhs),rhsMax =   1.46997146097306E-03  1.31099502496556E-02
 cg2d: Sum(rhs),rhsMax =   1.47024838915628E-03  1.31099281454196E-02
 cg2d: Sum(rhs),rhsMax =   1.47052561911294E-03  1.31099059285278E-02
 cg2d: Sum(rhs),rhsMax =   1.47080303380447E-03  1.31098836001494E-02
 cg2d: Sum(rhs),rhsMax =   1.47108079234567E-03  1.31098611600970E-02
 cg2d: Sum(rhs),rhsMax =   1.47135875662429E-03  1.31098386091786E-02
 cg2d: Sum(rhs),rhsMax =   1.47163703690972E-03  1.31098159461873E-02
 cg2d: Sum(rhs),rhsMax =   1.47191555155109E-03  1.31097931717322E-02
 cg2d: Sum(rhs),rhsMax =   1.47219435632058E-03  1.31097702864388E-02
 cg2d: Sum(rhs),rhsMax =   1.47247341692521E-03  1.31097472906226E-02
 cg2d: Sum(rhs),rhsMax =   1.47275274090665E-03  1.31097241835651E-02
 cg2d: Sum(rhs),rhsMax =   1.47303227800251E-03  1.31097009661684E-02
 cg2d: Sum(rhs),rhsMax =   1.47331212236284E-03  1.31096776382048E-02
 cg2d: Sum(rhs),rhsMax =   1.47359206539436E-03  1.31096542001776E-02
 cg2d: Sum(rhs),rhsMax =   1.47387238921549E-03  1.31096306492464E-02
 cg2d: Sum(rhs),rhsMax =   1.47415299888632E-03  1.31096069900404E-02
 cg2d: Sum(rhs),rhsMax =   1.47443380267012E-03  1.31095832204281E-02
 cg2d: Sum(rhs),rhsMax =   1.47471489993831E-03  1.31095593409017E-02
 cg2d: Sum(rhs),rhsMax =   1.47499628121643E-03  1.31095353505542E-02
 cg2d: Sum(rhs),rhsMax =   1.47527791735238E-03  1.31095112516885E-02
 cg2d: Sum(rhs),rhsMax =   1.47555975938435E-03  1.31094870421705E-02
 cg2d: Sum(rhs),rhsMax =   1.47584191669182E-03  1.31094627238131E-02
 cg2d: Sum(rhs),rhsMax =   1.47612423766570E-03  1.31094382943766E-02
 cg2d: Sum(rhs),rhsMax =   1.47640680837317E-03  1.31094137578321E-02
 cg2d: Sum(rhs),rhsMax =   1.47668967327858E-03  1.31093891098693E-02
 cg2d: Sum(rhs),rhsMax =   1.47697276243454E-03  1.31093643549576E-02
 cg2d: Sum(rhs),rhsMax =   1.47725610268204E-03  1.31093394890285E-02
 cg2d: Sum(rhs),rhsMax =   1.47753971899097E-03  1.31093145161426E-02
 cg2d: Sum(rhs),rhsMax =   1.47782352000056E-03  1.31092894321586E-02
 cg2d: Sum(rhs),rhsMax =   1.47810758541733E-03  1.31092642425353E-02
 cg2d: Sum(rhs),rhsMax =   1.47839185150008E-03  1.31092389414380E-02
 cg2d: Sum(rhs),rhsMax =   1.47867642402516E-03  1.31092135341519E-02
 cg2d: Sum(rhs),rhsMax =   1.47896121194738E-03  1.31091880162222E-02
 cg2d: Sum(rhs),rhsMax =   1.47924625244726E-03  1.31091623929207E-02
 cg2d: Sum(rhs),rhsMax =   1.47953145645678E-03  1.31091366589683E-02
 cg2d: Sum(rhs),rhsMax =   1.47981693021638E-03  1.31091108191026E-02
 cg2d: Sum(rhs),rhsMax =   1.48010263062614E-03  1.31090848686504E-02
 cg2d: Sum(rhs),rhsMax =   1.48038858634465E-03  1.31090588140540E-02
 cg2d: Sum(rhs),rhsMax =   1.48067468577223E-03  1.31090326491849E-02
 cg2d: Sum(rhs),rhsMax =   1.48096106394951E-03  1.31090063787409E-02
 cg2d: Sum(rhs),rhsMax =   1.48124768190145E-03  1.31089799978018E-02
 cg2d: Sum(rhs),rhsMax =   1.48153449108099E-03  1.31089535133898E-02
 cg2d: Sum(rhs),rhsMax =   1.48182155895444E-03  1.31089269184169E-02
 cg2d: Sum(rhs),rhsMax =   1.48210867517707E-03  1.31089002201578E-02
 cg2d: Sum(rhs),rhsMax =   1.48239615747637E-03  1.31088734113648E-02
 cg2d: Sum(rhs),rhsMax =   1.48268380601946E-03  1.31088464980539E-02
 cg2d: Sum(rhs),rhsMax =   1.48297171527981E-03  1.31088194761259E-02
 cg2d: Sum(rhs),rhsMax =   1.48325975990019E-03  1.31087923500052E-02
 cg2d: Sum(rhs),rhsMax =   1.48354807845678E-03  1.31087651148749E-02
 cg2d: Sum(rhs),rhsMax =   1.48383649700792E-03  1.31087377752195E-02
 cg2d: Sum(rhs),rhsMax =   1.48412520919672E-03  1.31087103273335E-02
 cg2d: Sum(rhs),rhsMax =   1.48441410909370E-03  1.31086827757693E-02
 cg2d: Sum(rhs),rhsMax =   1.48470325641001E-03  1.31086551155529E-02
 cg2d: Sum(rhs),rhsMax =   1.48499258355675E-03  1.31086273522566E-02
 cg2d: Sum(rhs),rhsMax =   1.48528207595958E-03  1.31085994807222E-02
(PID.TID 0000.0001)      cg2d_init_res =   2.17365030787266E-03
(PID.TID 0000.0001)      cg2d_iters(min,last) =      -1     366
(PID.TID 0000.0001)      cg2d_last_res =   9.56811720695782E-08
(PID.TID 0000.0001) // =======================================================
(PID.TID 0000.0001) // Begin MONITOR dynamic field statistics
(PID.TID 0000.0001) // =======================================================
(PID.TID 0000.0001) %MON time_tsnumber                =                 14328
(PID.TID 0000.0001) %MON time_secondsf                =   1.7193600000000E+07
(PID.TID 0000.0001) %MON dynstat_eta_max              =   1.2585265906001E-01
(PID.TID 0000.0001) %MON dynstat_eta_min              =  -3.1016117317328E-01
(PID.TID 0000.0001) %MON dynstat_eta_mean             =  -9.2671279598691E-08
(PID.TID 0000.0001) %MON dynstat_eta_sd               =   1.1163651126138E-01
(PID.TID 0000.0001) %MON dynstat_eta_del2             =   6.7600041004988E-07
(PID.TID 0000.0001) %MON dynstat_uvel_max             =   1.1733129653795E-01
(PID.TID 0000.0001) %MON dynstat_uvel_min             =  -1.2380416285437E-01
(PID.TID 0000.0001) %MON dynstat_uvel_mean            =   1.6788945057338E-08
(PID.TID 0000.0001) %MON dynstat_uvel_sd              =   4.6468201433844E-02
(PID.TID 0000.0001) %MON dynstat_uvel_del2            =   1.0238249600173E-06
(PID.TID 0000.0001) %MON dynstat_vvel_max             =   1.3619477349182E-01
(PID.TID 0000.0001) %MON dynstat_vvel_min             =  -1.1136667223293E-01
(PID.TID 0000.0001) %MON dynstat_vvel_mean            =  -5.6508981890891E-08
(PID.TID 0000.0001) %MON dynstat_vvel_sd              =   4.3665091440649E-02
(PID.TID 0000.0001) %MON dynstat_vvel_del2            =   1.2858459447063E-06
(PID.TID 0000.0001) %MON dynstat_wvel_max             =   8.7868603173411E-09
(PID.TID 0000.0001) %MON dynstat_wvel_min             =  -8.9665145240724E-09
(PID.TID 0000.0001) %MON dynstat_wvel_mean            =   3.4968565565666E-21
(PID.TID 0000.0001) %MON dynstat_wvel_sd              =   3.0965865581009E-09
(PID.TID 0000.0001) %MON dynstat_wvel_del2            =   3.3905621883857E-14
(PID.TID 0000.0001) %MON dynstat_theta_max            =   2.0000000000000E+01
(PID.TID 0000.0001) %MON dynstat_theta_min            =   2.0000000000000E+01
(PID.TID 0000.0001) %MON dynstat_theta_mean           =   1.9999999999999E+01
(PID.TID 0000.0001) %MON dynstat_theta_sd             =   1.1972645097557E-12
(PID.TID 0000.0001) %MON dynstat_theta_del2           =   0.0000000000000E+00
(PID.TID 0000.0001) %MON dynstat_salt_max             =   3.0000000000000E+01
(PID.TID 0000.0001) %MON dynstat_salt_min             =   3.0000000000000E+01
(PID.TID 0000.0001) %MON dynstat_salt_mean            =   2.9999999999998E+01
(PID.TID 0000.0001) %MON dynstat_salt_sd              =   2.1529444893531E-12
(PID.TID 0000.0001) %MON dynstat_salt_del2            =   0.0000000000000E+00
(PID.TID 0000.0001) %MON trAdv_CFL_u_max              =   2.9712320921732E-02
(PID.TID 0000.0001) %MON trAdv_CFL_v_max              =   3.2685397899179E-02
(PID.TID 0000.0001) %MON trAdv_CFL_w_max              =   2.2446159247493E-09
(PID.TID 0000.0001) %MON advcfl_uvel_max              =   2.9712999085049E-02
(PID.TID 0000.0001) %MON advcfl_vvel_max              =   3.2686745638036E-02
(PID.TID 0000.0001) %MON advcfl_wvel_max              =   4.3039269715548E-09
(PID.TID 0000.0001) %MON advcfl_W_hf_max              =   0.0000000000000E+00
(PID.TID 0000.0001) %MON pe_b_mean                    =   1.2751059982588E-05
(PID.TID 0000.0001) %MON ke_max                       =   9.3311448506665E-03
(PID.TID 0000.0001) %MON ke_mean                      =   2.0238158194567E-03
(PID.TID 0000.0001) %MON ke_vol                       =   7.2529629296391E+15
(PID.TID 0000.0001) %MON vort_r_min                   =  -4.1738552595694E-06
(PID.TID 0000.0001) %MON vort_r_max                   =   3.3724269263879E-06
(PID.TID 0000.0001) %MON vort_a_mean                  =   1.0615000000000E-04
(PID.TID 0000.0001) %MON vort_a_sd                    =   3.6317009536911E-06
(PID.TID 0000.0001) %MON vort_p_mean                  =   1.1210870169429E-04
(PID.TID 0000.0001) %MON vort_p_sd                    =   2.1067171569106E-05
(PID.TID 0000.0001) %MON surfExpan_theta_mean         =   6.9881814658430E-20
(PID.TID 0000.0001) %MON surfExpan_salt_mean          =   1.0481048509758E-19
(PID.TID 0000.0001) // =======================================================
(PID.TID 0000.0001) // End MONITOR dynamic field statistics
(PID.TID 0000.0001) // =======================================================
 cg2d: Sum(rhs),rhsMax =   1.48557179058851E-03  1.31085715067271E-02
 cg2d: Sum(rhs),rhsMax =   1.48586167238200E-03  1.31085434245754E-02
 cg2d: Sum(rhs),rhsMax =   1.48615176358189E-03  1.31085152380624E-02
 cg2d: Sum(rhs),rhsMax =   1.48644205942950E-03  1.31084869448794E-02
 cg2d: Sum(rhs),rhsMax =   1.48673248524595E-03  1.31084585486201E-02
 cg2d: Sum(rhs),rhsMax =   1.48702313395078E-03  1.31084300451339E-02
 cg2d: Sum(rhs),rhsMax =   1.48731384755574E-03  1.31084014386615E-02
 cg2d: Sum(rhs),rhsMax =   1.48760478037451E-03  1.31083727248419E-02
 cg2d: Sum(rhs),rhsMax =   1.48789584496650E-03  1.31083439084385E-02
 cg2d: Sum(rhs),rhsMax =   1.48818717974330E-03  1.31083149847295E-02
 cg2d: Sum(rhs),rhsMax =   1.48847864420446E-03  1.31082859601670E-02
 cg2d: Sum(rhs),rhsMax =   1.48877034569544E-03  1.31082568275068E-02
 cg2d: Sum(rhs),rhsMax =   1.48906218748914E-03  1.31082275938136E-02
 cg2d: Sum(rhs),rhsMax =   1.48935421576970E-03  1.31081982527272E-02
 cg2d: Sum(rhs),rhsMax =   1.48964635421788E-03  1.31081688103590E-02
 cg2d: Sum(rhs),rhsMax =   1.48993870177921E-03  1.31081392620090E-02
 cg2d: Sum(rhs),rhsMax =   1.49023103650438E-03  1.31081096141737E-02
 cg2d: Sum(rhs),rhsMax =   1.49052366017031E-03  1.31080798565524E-02
 cg2d: Sum(rhs),rhsMax =   1.49081643603838E-03  1.31080499991435E-02
 cg2d: Sum(rhs),rhsMax =   1.49110938834839E-03  1.31080200352720E-02
 cg2d: Sum(rhs),rhsMax =   1.49140247680287E-03  1.31079899711570E-02
 cg2d: Sum(rhs),rhsMax =   1.49169567720478E-03  1.31079598013807E-02
 cg2d: Sum(rhs),rhsMax =   1.49198891044434E-03  1.31079295298948E-02
 cg2d: Sum(rhs),rhsMax =   1.49228239381872E-03  1.31078991536703E-02
 cg2d: Sum(rhs),rhsMax =   1.49257605793320E-03  1.31078686781333E-02
 cg2d: Sum(rhs),rhsMax =   1.49286985340494E-03  1.31078380956926E-02
 cg2d: Sum(rhs),rhsMax =   1.49316359048691E-03  1.31078074148647E-02
 cg2d: Sum(rhs),rhsMax =   1.49345760906455E-03  1.31077766261154E-02
 cg2d: Sum(rhs),rhsMax =   1.49375168122881E-03  1.31077457388130E-02
 cg2d: Sum(rhs),rhsMax =   1.49404597817166E-03  1.31077147462843E-02
 cg2d: Sum(rhs),rhsMax =   1.49434039930033E-03  1.31076836554534E-02
 cg2d: Sum(rhs),rhsMax =   1.49463487584275E-03  1.31076524591309E-02
 cg2d: Sum(rhs),rhsMax =   1.49492951665442E-03  1.31076211615031E-02
 cg2d: Sum(rhs),rhsMax =   1.49522426609944E-03  1.31075897612382E-02
 cg2d: Sum(rhs),rhsMax =   1.49551909296794E-03  1.31075582616411E-02
 cg2d: Sum(rhs),rhsMax =   1.49581408411326E-03  1.31075266584817E-02
 cg2d: Sum(rhs),rhsMax =   1.49610903163125E-03  1.31074949559245E-02
 cg2d: Sum(rhs),rhsMax =   1.49640421475254E-03  1.31074631477433E-02
 cg2d: Sum(rhs),rhsMax =   1.49669942355171E-03  1.31074312417897E-02
 cg2d: Sum(rhs),rhsMax =   1.49699480222499E-03  1.31073992321316E-02
 cg2d: Sum(rhs),rhsMax =   1.49729023415204E-03  1.31073671246872E-02
 cg2d: Sum(rhs),rhsMax =   1.49758569102008E-03  1.31073349139162E-02
 cg2d: Sum(rhs),rhsMax =   1.49788132586112E-03  1.31073026018828E-02
 cg2d: Sum(rhs),rhsMax =   1.49817704982372E-03  1.31072701890570E-02
 cg2d: Sum(rhs),rhsMax =   1.49847285961559E-03  1.31072376762171E-02
 cg2d: Sum(rhs),rhsMax =   1.49876871011129E-03  1.31072050629935E-02
 cg2d: Sum(rhs),rhsMax =   1.49906467442045E-03  1.31071723486437E-02
 cg2d: Sum(rhs),rhsMax =   1.49936054356921E-03  1.31071395348062E-02
 cg2d: Sum(rhs),rhsMax =   1.49965652278205E-03  1.31071066204279E-02
 cg2d: Sum(rhs),rhsMax =   1.49995266764009E-03  1.31070736057754E-02
 cg2d: Sum(rhs),rhsMax =   1.50024884323179E-03  1.31070404924100E-02
 cg2d: Sum(rhs),rhsMax =   1.50054514027792E-03  1.31070072761210E-02
 cg2d: Sum(rhs),rhsMax =   1.50084147752251E-03  1.31069739625297E-02
 cg2d: Sum(rhs),rhsMax =   1.50113787698848E-03  1.31069405483038E-02
 cg2d: Sum(rhs),rhsMax =   1.50143421751132E-03  1.31069070378719E-02
 cg2d: Sum(rhs),rhsMax =   1.50173072213884E-03  1.31068734217186E-02
 cg2d: Sum(rhs),rhsMax =   1.50202725077979E-03  1.31068397103502E-02
 cg2d: Sum(rhs),rhsMax =   1.50232381620669E-03  1.31068058974017E-02
 cg2d: Sum(rhs),rhsMax =   1.50262038772001E-03  1.31067719893015E-02
 cg2d: Sum(rhs),rhsMax =   1.50291700372608E-03  1.31067379789195E-02
 cg2d: Sum(rhs),rhsMax =   1.50321359552142E-03  1.31067038701492E-02
 cg2d: Sum(rhs),rhsMax =   1.50351026747658E-03  1.31066696634379E-02
 cg2d: Sum(rhs),rhsMax =   1.50380692252115E-03  1.31066353606779E-02
 cg2d: Sum(rhs),rhsMax =   1.50410367515078E-03  1.31066009546639E-02
 cg2d: Sum(rhs),rhsMax =   1.50440040992822E-03  1.31065664519451E-02
 cg2d: Sum(rhs),rhsMax =   1.50469720923385E-03  1.31065318495946E-02
 cg2d: Sum(rhs),rhsMax =   1.50499397067692E-03  1.31064971505787E-02
 cg2d: Sum(rhs),rhsMax =   1.50529079006265E-03  1.31064623527881E-02
 cg2d: Sum(rhs),rhsMax =   1.50558756709891E-03  1.31064274579881E-02
 cg2d: Sum(rhs),rhsMax =   1.50588438187953E-03  1.31063924653127E-02
 cg2d: Sum(rhs),rhsMax =   1.50618107798472E-03  1.31063573765088E-02
 cg2d: Sum(rhs),rhsMax =   1.50647787980867E-03  1.31063221869818E-02
(PID.TID 0000.0001)      cg2d_init_res =   2.16166430040095E-03
(PID.TID 0000.0001)      cg2d_iters(min,last) =      -1     366
(PID.TID 0000.0001)      cg2d_last_res =   9.61201536321808E-08
(PID.TID 0000.0001) // =======================================================
(PID.TID 0000.0001) // Begin MONITOR dynamic field statistics
(PID.TID 0000.0001) // =======================================================
(PID.TID 0000.0001) %MON time_tsnumber                =                 14400
(PID.TID 0000.0001) %MON time_secondsf                =   1.7280000000000E+07
(PID.TID 0000.0001) %MON dynstat_eta_max              =   1.2604015865553E-01
(PID.TID 0000.0001) %MON dynstat_eta_min              =  -3.1090891264714E-01
(PID.TID 0000.0001) %MON dynstat_eta_mean             =  -9.3977550180385E-08
(PID.TID 0000.0001) %MON dynstat_eta_sd               =   1.1183316284011E-01
(PID.TID 0000.0001) %MON dynstat_eta_del2             =   6.7727895219108E-07
(PID.TID 0000.0001) %MON dynstat_uvel_max             =   1.1779298347889E-01
(PID.TID 0000.0001) %MON dynstat_uvel_min             =  -1.2400521088884E-01
(PID.TID 0000.0001) %MON dynstat_uvel_mean            =   8.9727491179803E-09
(PID.TID 0000.0001) %MON dynstat_uvel_sd              =   4.6577058652763E-02
(PID.TID 0000.0001) %MON dynstat_uvel_del2            =   1.0258889611540E-06
(PID.TID 0000.0001) %MON dynstat_vvel_max             =   1.3660037740170E-01
(PID.TID 0000.0001) %MON dynstat_vvel_min             =  -1.1171626138955E-01
(PID.TID 0000.0001) %MON dynstat_vvel_mean            =  -5.7392131563118E-08
(PID.TID 0000.0001) %MON dynstat_vvel_sd              =   4.3744464192183E-02
(PID.TID 0000.0001) %MON dynstat_vvel_del2            =   1.2848954986476E-06
(PID.TID 0000.0001) %MON dynstat_wvel_max             =   8.6694672808517E-09
(PID.TID 0000.0001) %MON dynstat_wvel_min             =  -8.9716455340385E-09
(PID.TID 0000.0001) %MON dynstat_wvel_mean            =   9.6565136428942E-21
(PID.TID 0000.0001) %MON dynstat_wvel_sd              =   3.0682603646527E-09
(PID.TID 0000.0001) %MON dynstat_wvel_del2            =   3.3750664777107E-14
(PID.TID 0000.0001) %MON dynstat_theta_max            =   2.0000000000000E+01
(PID.TID 0000.0001) %MON dynstat_theta_min            =   2.0000000000000E+01
(PID.TID 0000.0001) %MON dynstat_theta_mean           =   1.9999999999999E+01
(PID.TID 0000.0001) %MON dynstat_theta_sd             =   1.1972645097557E-12
(PID.TID 0000.0001) %MON dynstat_theta_del2           =   0.0000000000000E+00
(PID.TID 0000.0001) %MON dynstat_salt_max             =   3.0000000000000E+01
(PID.TID 0000.0001) %MON dynstat_salt_min             =   3.0000000000000E+01
(PID.TID 0000.0001) %MON dynstat_salt_mean            =   2.9999999999998E+01
(PID.TID 0000.0001) %MON dynstat_salt_sd              =   2.1529444893531E-12
(PID.TID 0000.0001) %MON dynstat_salt_del2            =   0.0000000000000E+00
(PID.TID 0000.0001) %MON trAdv_CFL_u_max              =   2.9760588167472E-02
(PID.TID 0000.0001) %MON trAdv_CFL_v_max              =   3.2782733558602E-02
(PID.TID 0000.0001) %MON trAdv_CFL_w_max              =   2.2145519759199E-09
(PID.TID 0000.0001) %MON advcfl_uvel_max              =   2.9761250613321E-02
(PID.TID 0000.0001) %MON advcfl_vvel_max              =   3.2784090576408E-02
(PID.TID 0000.0001) %MON advcfl_wvel_max              =   4.3063898563385E-09
(PID.TID 0000.0001) %MON advcfl_W_hf_max              =   0.0000000000000E+00
(PID.TID 0000.0001) %MON pe_b_mean                    =   1.2796022416220E-05
(PID.TID 0000.0001) %MON ke_max                       =   9.3849805117461E-03
(PID.TID 0000.0001) %MON ke_mean                      =   2.0323107004529E-03
(PID.TID 0000.0001) %MON ke_vol                       =   7.2529629296391E+15
(PID.TID 0000.0001) %MON vort_r_min                   =  -4.1732216407898E-06
(PID.TID 0000.0001) %MON vort_r_max                   =   3.3719719401520E-06
(PID.TID 0000.0001) %MON vort_a_mean                  =   1.0615000000000E-04
(PID.TID 0000.0001) %MON vort_a_sd                    =   3.6319582415933E-06
(PID.TID 0000.0001) %MON vort_p_mean                  =   1.1210870169429E-04
(PID.TID 0000.0001) %MON vort_p_sd                    =   2.1067227016714E-05
(PID.TID 0000.0001) %MON surfExpan_theta_mean         =   1.9316836230693E-19
(PID.TID 0000.0001) %MON surfExpan_salt_mean          =   2.8974093356124E-19
(PID.TID 0000.0001) // =======================================================
(PID.TID 0000.0001) // End MONITOR dynamic field statistics
(PID.TID 0000.0001) // =======================================================
 cg2d: Sum(rhs),rhsMax =   1.50677463589753E-03  1.31062869018929E-02
 cg2d: Sum(rhs),rhsMax =   1.50707141530991E-03  1.31062515183195E-02
 cg2d: Sum(rhs),rhsMax =   1.50736814771356E-03  1.31062160385803E-02
 cg2d: Sum(rhs),rhsMax =   1.50766488265537E-03  1.31061804606069E-02
 cg2d: Sum(rhs),rhsMax =   1.50796160244296E-03  1.31061447861049E-02
 cg2d: Sum(rhs),rhsMax =   1.50825830926562E-03  1.31061090148547E-02
 cg2d: Sum(rhs),rhsMax =   1.50855489180920E-03  1.31060731491709E-02
 cg2d: Sum(rhs),rhsMax =   1.50885150346690E-03  1.31060371819576E-02
 cg2d: Sum(rhs),rhsMax =   1.50914809981636E-03  1.31060011186601E-02
 cg2d: Sum(rhs),rhsMax =   1.50944455520855E-03  1.31059649611405E-02
 cg2d: Sum(rhs),rhsMax =   1.50974103875080E-03  1.31059287055995E-02
 cg2d: Sum(rhs),rhsMax =   1.51003745492392E-03  1.31058923559185E-02
 cg2d: Sum(rhs),rhsMax =   1.51033390863300E-03  1.31058559107231E-02
 cg2d: Sum(rhs),rhsMax =   1.51063020104738E-03  1.31058193662875E-02
 cg2d: Sum(rhs),rhsMax =   1.51092646485652E-03  1.31057827278806E-02
 cg2d: Sum(rhs),rhsMax =   1.51122265659112E-03  1.31057459934159E-02
 cg2d: Sum(rhs),rhsMax =   1.51151880585474E-03  1.31057091638869E-02
 cg2d: Sum(rhs),rhsMax =   1.51181489697452E-03  1.31056722374134E-02
 cg2d: Sum(rhs),rhsMax =   1.51211092859011E-03  1.31056352170926E-02
 cg2d: Sum(rhs),rhsMax =   1.51240687432358E-03  1.31055980996398E-02
 cg2d: Sum(rhs),rhsMax =   1.51270273394958E-03  1.31055608883595E-02
 cg2d: Sum(rhs),rhsMax =   1.51299849812105E-03  1.31055235805467E-02
 cg2d: Sum(rhs),rhsMax =   1.51329417330424E-03  1.31054861780873E-02
 cg2d: Sum(rhs),rhsMax =   1.51358965449535E-03  1.31054486821144E-02
 cg2d: Sum(rhs),rhsMax =   1.51388515675807E-03  1.31054110920226E-02
 cg2d: Sum(rhs),rhsMax =   1.51418049284530E-03  1.31053734049178E-02
 cg2d: Sum(rhs),rhsMax =   1.51447571618543E-03  1.31053356243356E-02
 cg2d: Sum(rhs),rhsMax =   1.51477084258744E-03  1.31052977482856E-02
 cg2d: Sum(rhs),rhsMax =   1.51506589559345E-03  1.31052597806045E-02
 cg2d: Sum(rhs),rhsMax =   1.51536084466735E-03  1.31052217164948E-02
 cg2d: Sum(rhs),rhsMax =   1.51565569759492E-03  1.31051835598018E-02
 cg2d: Sum(rhs),rhsMax =   1.51595039120115E-03  1.31051453078283E-02
 cg2d: Sum(rhs),rhsMax =   1.51624498410126E-03  1.31051069629565E-02
 cg2d: Sum(rhs),rhsMax =   1.51653931543145E-03  1.31050685231921E-02
 cg2d: Sum(rhs),rhsMax =   1.51683363056781E-03  1.31050299904427E-02
 cg2d: Sum(rhs),rhsMax =   1.51712765963862E-03  1.31049913619833E-02
 cg2d: Sum(rhs),rhsMax =   1.51742166230596E-03  1.31049526442158E-02
 cg2d: Sum(rhs),rhsMax =   1.51771550522712E-03  1.31049138302339E-02
 cg2d: Sum(rhs),rhsMax =   1.51800923942898E-03  1.31048749244320E-02
 cg2d: Sum(rhs),rhsMax =   1.51830275527826E-03  1.31048359249309E-02
 cg2d: Sum(rhs),rhsMax =   1.51859615132003E-03  1.31047968359663E-02
 cg2d: Sum(rhs),rhsMax =   1.51888924851572E-03  1.31047576498190E-02
 cg2d: Sum(rhs),rhsMax =   1.51918227564177E-03  1.31047183717545E-02
 cg2d: Sum(rhs),rhsMax =   1.51947511744704E-03  1.31046789990497E-02
 cg2d: Sum(rhs),rhsMax =   1.51976778024345E-03  1.31046395384274E-02
 cg2d: Sum(rhs),rhsMax =   1.52006032134063E-03  1.31045999845006E-02
 cg2d: Sum(rhs),rhsMax =   1.52035262294942E-03  1.31045603389210E-02
 cg2d: Sum(rhs),rhsMax =   1.52064475763191E-03  1.31045205991767E-02
 cg2d: Sum(rhs),rhsMax =   1.52093667549948E-03  1.31044807686162E-02
 cg2d: Sum(rhs),rhsMax =   1.52122842107790E-03  1.31044408446852E-02
 cg2d: Sum(rhs),rhsMax =   1.52151984673188E-03  1.31044008294528E-02
 cg2d: Sum(rhs),rhsMax =   1.52181111773708E-03  1.31043607230826E-02
 cg2d: Sum(rhs),rhsMax =   1.52210218495413E-03  1.31043205260851E-02
 cg2d: Sum(rhs),rhsMax =   1.52239304991708E-03  1.31042802365484E-02
 cg2d: Sum(rhs),rhsMax =   1.52268352521382E-03  1.31042398562078E-02
 cg2d: Sum(rhs),rhsMax =   1.52297392152960E-03  1.31041993846020E-02
 cg2d: Sum(rhs),rhsMax =   1.52326404978138E-03  1.31041588223748E-02
 cg2d: Sum(rhs),rhsMax =   1.52355400397554E-03  1.31041181677753E-02
 cg2d: Sum(rhs),rhsMax =   1.52384367125588E-03  1.31040774231433E-02
 cg2d: Sum(rhs),rhsMax =   1.52413309678326E-03  1.31040365879617E-02
 cg2d: Sum(rhs),rhsMax =   1.52442221453757E-03  1.31039956620849E-02
 cg2d: Sum(rhs),rhsMax =   1.52471098881789E-03  1.31039546449206E-02
 cg2d: Sum(rhs),rhsMax =   1.52499965448930E-03  1.31039135410645E-02
 cg2d: Sum(rhs),rhsMax =   1.52528790863004E-03  1.31038723448133E-02
 cg2d: Sum(rhs),rhsMax =   1.52557597050001E-03  1.31038310559814E-02
 cg2d: Sum(rhs),rhsMax =   1.52586373348968E-03  1.31037896794203E-02
 cg2d: Sum(rhs),rhsMax =   1.52615122205494E-03  1.31037482111609E-02
 cg2d: Sum(rhs),rhsMax =   1.52643838885297E-03  1.31037066556403E-02
 cg2d: Sum(rhs),rhsMax =   1.52672529710891E-03  1.31036650089837E-02
 cg2d: Sum(rhs),rhsMax =   1.52701178233931E-03  1.31036232736087E-02
 cg2d: Sum(rhs),rhsMax =   1.52729805398427E-03  1.31035814506775E-02
 cg2d: Sum(rhs),rhsMax =   1.52758395419762E-03  1.31035395338829E-02
(PID.TID 0000.0001)      cg2d_init_res =   2.14740201938858E-03
(PID.TID 0000.0001)      cg2d_iters(min,last) =      -1     366
(PID.TID 0000.0001)      cg2d_last_res =   9.34221649189079E-08
(PID.TID 0000.0001) // =======================================================
(PID.TID 0000.0001) // Begin MONITOR dynamic field statistics
(PID.TID 0000.0001) // =======================================================
(PID.TID 0000.0001) %MON time_tsnumber                =                 14472
(PID.TID 0000.0001) %MON time_secondsf                =   1.7366400000000E+07
(PID.TID 0000.0001) %MON dynstat_eta_max              =   1.2620913993477E-01
(PID.TID 0000.0001) %MON dynstat_eta_min              =  -3.1165733363269E-01
(PID.TID 0000.0001) %MON dynstat_eta_mean             =  -9.5272961098257E-08
(PID.TID 0000.0001) %MON dynstat_eta_sd               =   1.1202889805308E-01
(PID.TID 0000.0001) %MON dynstat_eta_del2             =   6.7852950663126E-07
(PID.TID 0000.0001) %MON dynstat_uvel_max             =   1.1826269555617E-01
(PID.TID 0000.0001) %MON dynstat_uvel_min             =  -1.2420160899949E-01
(PID.TID 0000.0001) %MON dynstat_uvel_mean            =   3.2887598490763E-10
(PID.TID 0000.0001) %MON dynstat_uvel_sd              =   4.6687449933117E-02
(PID.TID 0000.0001) %MON dynstat_uvel_del2            =   1.0279083375278E-06
(PID.TID 0000.0001) %MON dynstat_vvel_max             =   1.3700953408135E-01
(PID.TID 0000.0001) %MON dynstat_vvel_min             =  -1.1205252696744E-01
(PID.TID 0000.0001) %MON dynstat_vvel_mean            =  -5.6973096798640E-08
(PID.TID 0000.0001) %MON dynstat_vvel_sd              =   4.3820875122849E-02
(PID.TID 0000.0001) %MON dynstat_vvel_del2            =   1.2838832352079E-06
(PID.TID 0000.0001) %MON dynstat_wvel_max             =   8.4645482210908E-09
(PID.TID 0000.0001) %MON dynstat_wvel_min             =  -8.9711497421376E-09
(PID.TID 0000.0001) %MON dynstat_wvel_mean            =   2.5677112363106E-22
(PID.TID 0000.0001) %MON dynstat_wvel_sd              =   3.0435336605009E-09
(PID.TID 0000.0001) %MON dynstat_wvel_del2            =   3.3485889626846E-14
(PID.TID 0000.0001) %MON dynstat_theta_max            =   2.0000000000000E+01
(PID.TID 0000.0001) %MON dynstat_theta_min            =   2.0000000000000E+01
(PID.TID 0000.0001) %MON dynstat_theta_mean           =   1.9999999999999E+01
(PID.TID 0000.0001) %MON dynstat_theta_sd             =   1.1972645097557E-12
(PID.TID 0000.0001) %MON dynstat_theta_del2           =   0.0000000000000E+00
(PID.TID 0000.0001) %MON dynstat_salt_max             =   3.0000000000000E+01
(PID.TID 0000.0001) %MON dynstat_salt_min             =   3.0000000000000E+01
(PID.TID 0000.0001) %MON dynstat_salt_mean            =   2.9999999999998E+01
(PID.TID 0000.0001) %MON dynstat_salt_sd              =   2.1529444893531E-12
(PID.TID 0000.0001) %MON dynstat_salt_del2            =   0.0000000000000E+00
(PID.TID 0000.0001) %MON trAdv_CFL_u_max              =   2.9807738997990E-02
(PID.TID 0000.0001) %MON trAdv_CFL_v_max              =   3.2880916883263E-02
(PID.TID 0000.0001) %MON trAdv_CFL_w_max              =   2.1620517842242E-09
(PID.TID 0000.0001) %MON advcfl_uvel_max              =   2.9808386159879E-02
(PID.TID 0000.0001) %MON advcfl_vvel_max              =   3.2882288179524E-02
(PID.TID 0000.0001) %MON advcfl_wvel_max              =   4.3061518762261E-09
(PID.TID 0000.0001) %MON advcfl_W_hf_max              =   0.0000000000000E+00
(PID.TID 0000.0001) %MON pe_b_mean                    =   1.2840853912829E-05
(PID.TID 0000.0001) %MON ke_max                       =   9.4394680661287E-03
(PID.TID 0000.0001) %MON ke_mean                      =   2.0407657378105E-03
(PID.TID 0000.0001) %MON ke_vol                       =   7.2529629296391E+15
(PID.TID 0000.0001) %MON vort_r_min                   =  -4.1724137620693E-06
(PID.TID 0000.0001) %MON vort_r_max                   =   3.3711067620766E-06
(PID.TID 0000.0001) %MON vort_a_mean                  =   1.0615000000000E-04
(PID.TID 0000.0001) %MON vort_a_sd                    =   3.6322113942222E-06
(PID.TID 0000.0001) %MON vort_p_mean                  =   1.1210870169429E-04
(PID.TID 0000.0001) %MON vort_p_sd                    =   2.1067281182437E-05
(PID.TID 0000.0001) %MON surfExpan_theta_mean         =   5.0527766693173E-21
(PID.TID 0000.0001) %MON surfExpan_salt_mean          =   7.5664208119229E-21
(PID.TID 0000.0001) // =======================================================
(PID.TID 0000.0001) // End MONITOR dynamic field statistics
(PID.TID 0000.0001) // =======================================================
 cg2d: Sum(rhs),rhsMax =   1.52786958592002E-03  1.31034975320921E-02
 cg2d: Sum(rhs),rhsMax =   1.52815485536852E-03  1.31034554372405E-02
 cg2d: Sum(rhs),rhsMax =   1.52843977660847E-03  1.31034132573490E-02
 cg2d: Sum(rhs),rhsMax =   1.52872439967745E-03  1.31033709854231E-02
 cg2d: Sum(rhs),rhsMax =   1.52900858550220E-03  1.31033286280994E-02
 cg2d: Sum(rhs),rhsMax =   1.52929249163263E-03  1.31032861788444E-02
 cg2d: Sum(rhs),rhsMax =   1.52957591610626E-03  1.31032436442734E-02
 cg2d: Sum(rhs),rhsMax =   1.52985905325502E-03  1.31032010191683E-02
 cg2d: Sum(rhs),rhsMax =   1.53014162005132E-03  1.31031583077523E-02
 cg2d: Sum(rhs),rhsMax =   1.53042398046398E-03  1.31031155075840E-02
 cg2d: Sum(rhs),rhsMax =   1.53070585854742E-03  1.31030726206474E-02
 cg2d: Sum(rhs),rhsMax =   1.53098737606027E-03  1.31030296436766E-02
 cg2d: Sum(rhs),rhsMax =   1.53126853365285E-03  1.31029865784431E-02
 cg2d: Sum(rhs),rhsMax =   1.53154926634998E-03  1.31029434261457E-02
 cg2d: Sum(rhs),rhsMax =   1.53182955637984E-03  1.31029001871039E-02
 cg2d: Sum(rhs),rhsMax =   1.53210942395722E-03  1.31028568609202E-02
 cg2d: Sum(rhs),rhsMax =   1.53238883729639E-03  1.31028134472684E-02
 cg2d: Sum(rhs),rhsMax =   1.53266781444585E-03  1.31027699467091E-02
 cg2d: Sum(rhs),rhsMax =   1.53294628270701E-03  1.31027263580117E-02
 cg2d: Sum(rhs),rhsMax =   1.53322434501262E-03  1.31026826831700E-02
 cg2d: Sum(rhs),rhsMax =   1.53350173707372E-03  1.31026389233449E-02
 cg2d: Sum(rhs),rhsMax =   1.53377878456699E-03  1.31025950727652E-02
 cg2d: Sum(rhs),rhsMax =   1.53405527763169E-03  1.31025511394403E-02
 cg2d: Sum(rhs),rhsMax =   1.53433132609239E-03  1.31025071163221E-02
 cg2d: Sum(rhs),rhsMax =   1.53460684601638E-03  1.31024630107506E-02
 cg2d: Sum(rhs),rhsMax =   1.53488189426719E-03  1.31024188161624E-02
 cg2d: Sum(rhs),rhsMax =   1.53515635451058E-03  1.31023745385885E-02
 cg2d: Sum(rhs),rhsMax =   1.53543030587404E-03  1.31023301711070E-02
 cg2d: Sum(rhs),rhsMax =   1.53570361901062E-03  1.31022857209822E-02
 cg2d: Sum(rhs),rhsMax =   1.53597633024189E-03  1.31022411846001E-02
 cg2d: Sum(rhs),rhsMax =   1.53624858287060E-03  1.31021965609405E-02
 cg2d: Sum(rhs),rhsMax =   1.53652020423792E-03  1.31021518526350E-02
 cg2d: Sum(rhs),rhsMax =   1.53679118418772E-03  1.31021070601297E-02
 cg2d: Sum(rhs),rhsMax =   1.53706160650557E-03  1.31020621819552E-02
 cg2d: Sum(rhs),rhsMax =   1.53733132318300E-03  1.31020172184322E-02
 cg2d: Sum(rhs),rhsMax =   1.53760044435913E-03  1.31019721695698E-02
 cg2d: Sum(rhs),rhsMax =   1.53786882182211E-03  1.31019270369062E-02
 cg2d: Sum(rhs),rhsMax =   1.53813661552833E-03  1.31018818193263E-02
 cg2d: Sum(rhs),rhsMax =   1.53840368717263E-03  1.31018365161515E-02
 cg2d: Sum(rhs),rhsMax =   1.53867010512145E-03  1.31017911304084E-02
 cg2d: Sum(rhs),rhsMax =   1.53893573383672E-03  1.31017456601724E-02
 cg2d: Sum(rhs),rhsMax =   1.53923212648905E-03  1.31017001041206E-02
 cg2d: Sum(rhs),rhsMax =   1.53952757112093E-03  1.31016544630234E-02
 cg2d: Sum(rhs),rhsMax =   1.53982220869059E-03  1.31016087404611E-02
 cg2d: Sum(rhs),rhsMax =   1.54011582643476E-03  1.31015629321618E-02
 cg2d: Sum(rhs),rhsMax =   1.54040852449493E-03  1.31015170431497E-02
 cg2d: Sum(rhs),rhsMax =   1.54070011861489E-03  1.31014710672485E-02
 cg2d: Sum(rhs),rhsMax =   1.54099076551225E-03  1.31014250119893E-02
 cg2d: Sum(rhs),rhsMax =   1.54128037921553E-03  1.31013788716311E-02
 cg2d: Sum(rhs),rhsMax =   1.54156896026449E-03  1.31013326480601E-02
 cg2d: Sum(rhs),rhsMax =   1.54185644844484E-03  1.31012863382795E-02
 cg2d: Sum(rhs),rhsMax =   1.54214278943742E-03  1.31012399495736E-02
 cg2d: Sum(rhs),rhsMax =   1.54242801135620E-03  1.31011934764264E-02
 cg2d: Sum(rhs),rhsMax =   1.54271209252734E-03  1.31011469222973E-02
 cg2d: Sum(rhs),rhsMax =   1.54299501214770E-03  1.31011002823957E-02
 cg2d: Sum(rhs),rhsMax =   1.54327669958955E-03  1.31010535632572E-02
 cg2d: Sum(rhs),rhsMax =   1.54355710023478E-03  1.31010067594565E-02
 cg2d: Sum(rhs),rhsMax =   1.54383623654176E-03  1.31009598753686E-02
 cg2d: Sum(rhs),rhsMax =   1.54411399439091E-03  1.31009129046990E-02
 cg2d: Sum(rhs),rhsMax =   1.54446815023592E-03  1.31008658772076E-02
 cg2d: Sum(rhs),rhsMax =   1.54482023009746E-03  1.31008187468524E-02
 cg2d: Sum(rhs),rhsMax =   1.54517008150367E-03  1.31007715357302E-02
 cg2d: Sum(rhs),rhsMax =   1.54594503038837E-03  1.31007242272623E-02
 cg2d: Sum(rhs),rhsMax =   1.54671044893665E-03  1.31006768504859E-02
 cg2d: Sum(rhs),rhsMax =   1.54746613823871E-03  1.31006293937742E-02
 cg2d: Sum(rhs),rhsMax =   1.54821190485815E-03  1.31005818568489E-02
 cg2d: Sum(rhs),rhsMax =   1.54894758000122E-03  1.31005342379557E-02
 cg2d: Sum(rhs),rhsMax =   1.54970224712318E-03  1.31004865359493E-02
 cg2d: Sum(rhs),rhsMax =   1.55044578037595E-03  1.31004387572117E-02
 cg2d: Sum(rhs),rhsMax =   1.55117817379016E-03  1.31003908921728E-02
 cg2d: Sum(rhs),rhsMax =   1.55189904593859E-03  1.31003429524169E-02
 cg2d: Sum(rhs),rhsMax =   1.55260846612604E-03  1.31002949286320E-02
(PID.TID 0000.0001)      cg2d_init_res =   2.13058869287201E-03
(PID.TID 0000.0001)      cg2d_iters(min,last) =      -1     352
(PID.TID 0000.0001)      cg2d_last_res =   9.30377958699574E-08
(PID.TID 0000.0001) // =======================================================
(PID.TID 0000.0001) // Begin MONITOR dynamic field statistics
(PID.TID 0000.0001) // =======================================================
(PID.TID 0000.0001) %MON time_tsnumber                =                 14544
(PID.TID 0000.0001) %MON time_secondsf                =   1.7452800000000E+07
(PID.TID 0000.0001) %MON dynstat_eta_max              =   1.2636441199267E-01
(PID.TID 0000.0001) %MON dynstat_eta_min              =  -3.1240633662261E-01
(PID.TID 0000.0001) %MON dynstat_eta_mean             =  -9.6835069684528E-08
(PID.TID 0000.0001) %MON dynstat_eta_sd               =   1.1222373132066E-01
(PID.TID 0000.0001) %MON dynstat_eta_del2             =   6.7975491217363E-07
(PID.TID 0000.0001) %MON dynstat_uvel_max             =   1.1873308642929E-01
(PID.TID 0000.0001) %MON dynstat_uvel_min             =  -1.2439761053463E-01
(PID.TID 0000.0001) %MON dynstat_uvel_mean            =  -8.6253458103157E-09
(PID.TID 0000.0001) %MON dynstat_uvel_sd              =   4.6798382923168E-02
(PID.TID 0000.0001) %MON dynstat_uvel_del2            =   1.0298656685085E-06
(PID.TID 0000.0001) %MON dynstat_vvel_max             =   1.3742367764168E-01
(PID.TID 0000.0001) %MON dynstat_vvel_min             =  -1.1237403169994E-01
(PID.TID 0000.0001) %MON dynstat_vvel_mean            =  -5.5166027921745E-08
(PID.TID 0000.0001) %MON dynstat_vvel_sd              =   4.3895393908671E-02
(PID.TID 0000.0001) %MON dynstat_vvel_del2            =   1.2828631499706E-06
(PID.TID 0000.0001) %MON dynstat_wvel_max             =   8.1823219347280E-09
(PID.TID 0000.0001) %MON dynstat_wvel_min             =  -8.9649673365057E-09
(PID.TID 0000.0001) %MON dynstat_wvel_mean            =  -2.9069158563730E-24
(PID.TID 0000.0001) %MON dynstat_wvel_sd              =   3.0240607390241E-09
(PID.TID 0000.0001) %MON dynstat_wvel_del2            =   3.3473017073940E-14
(PID.TID 0000.0001) %MON dynstat_theta_max            =   2.0000000000000E+01
(PID.TID 0000.0001) %MON dynstat_theta_min            =   2.0000000000000E+01
(PID.TID 0000.0001) %MON dynstat_theta_mean           =   1.9999999999999E+01
(PID.TID 0000.0001) %MON dynstat_theta_sd             =   1.1972645097557E-12
(PID.TID 0000.0001) %MON dynstat_theta_del2           =   0.0000000000000E+00
(PID.TID 0000.0001) %MON dynstat_salt_max             =   3.0000000000000E+01
(PID.TID 0000.0001) %MON dynstat_salt_min             =   3.0000000000000E+01
(PID.TID 0000.0001) %MON dynstat_salt_mean            =   2.9999999999998E+01
(PID.TID 0000.0001) %MON dynstat_salt_sd              =   2.1529444893531E-12
(PID.TID 0000.0001) %MON dynstat_salt_del2            =   0.0000000000000E+00
(PID.TID 0000.0001) %MON trAdv_CFL_u_max              =   2.9854771194300E-02
(PID.TID 0000.0001) %MON trAdv_CFL_v_max              =   3.2980292531887E-02
(PID.TID 0000.0001) %MON trAdv_CFL_w_max              =   2.0906583189953E-09
(PID.TID 0000.0001) %MON advcfl_uvel_max              =   2.9855426528312E-02
(PID.TID 0000.0001) %MON advcfl_vvel_max              =   3.2981682634003E-02
(PID.TID 0000.0001) %MON advcfl_wvel_max              =   4.3031843215227E-09
(PID.TID 0000.0001) %MON advcfl_W_hf_max              =   0.0000000000000E+00
(PID.TID 0000.0001) %MON pe_b_mean                    =   1.2885556682826E-05
(PID.TID 0000.0001) %MON ke_max                       =   9.4945991764636E-03
(PID.TID 0000.0001) %MON ke_mean                      =   2.0491812714164E-03
(PID.TID 0000.0001) %MON ke_vol                       =   7.2529629296391E+15
(PID.TID 0000.0001) %MON vort_r_min                   =  -4.1714448982719E-06
(PID.TID 0000.0001) %MON vort_r_max                   =   3.3700613569033E-06
(PID.TID 0000.0001) %MON vort_a_mean                  =   1.0615000000000E-04
(PID.TID 0000.0001) %MON vort_a_sd                    =   3.6324606088754E-06
(PID.TID 0000.0001) %MON vort_p_mean                  =   1.1210870169429E-04
(PID.TID 0000.0001) %MON vort_p_sd                    =   2.1067335088170E-05
(PID.TID 0000.0001) %MON surfExpan_theta_mean         =  -7.9418848976821E-23
(PID.TID 0000.0001) %MON surfExpan_salt_mean          =  -1.0950267139675E-22
(PID.TID 0000.0001) // =======================================================
(PID.TID 0000.0001) // End MONITOR dynamic field statistics
(PID.TID 0000.0001) // =======================================================
 cg2d: Sum(rhs),rhsMax =   1.55330608198299E-03  1.31002468304247E-02
 cg2d: Sum(rhs),rhsMax =   1.55401925113453E-03  1.31001986442399E-02
 cg2d: Sum(rhs),rhsMax =   1.55471957424072E-03  1.31001503832297E-02
 cg2d: Sum(rhs),rhsMax =   1.55540711546224E-03  1.31001020385578E-02
 cg2d: Sum(rhs),rhsMax =   1.55623065443428E-03  1.31000536170689E-02
 cg2d: Sum(rhs),rhsMax =   1.55706334706521E-03  1.31000051180430E-02
 cg2d: Sum(rhs),rhsMax =   1.55790290589584E-03  1.30999565388270E-02
 cg2d: Sum(rhs),rhsMax =   1.55872284566162E-03  1.30999078823192E-02
 cg2d: Sum(rhs),rhsMax =   1.55954757170052E-03  1.30998591353105E-02
 cg2d: Sum(rhs),rhsMax =   1.56035167465375E-03  1.30998103184093E-02
 cg2d: Sum(rhs),rhsMax =   1.56113518466108E-03  1.30997614196386E-02
 cg2d: Sum(rhs),rhsMax =   1.56192121428601E-03  1.30997124407653E-02
 cg2d: Sum(rhs),rhsMax =   1.56268574720235E-03  1.30996633880188E-02
 cg2d: Sum(rhs),rhsMax =   1.56342900711436E-03  1.30996142538335E-02
 cg2d: Sum(rhs),rhsMax =   1.56417289554471E-03  1.30995650426786E-02
 cg2d: Sum(rhs),rhsMax =   1.56489474256141E-03  1.30995157521992E-02
 cg2d: Sum(rhs),rhsMax =   1.56559456127908E-03  1.30994663852918E-02
 cg2d: Sum(rhs),rhsMax =   1.56629390508915E-03  1.30994169439097E-02
 cg2d: Sum(rhs),rhsMax =   1.56697052491458E-03  1.30993674222958E-02
 cg2d: Sum(rhs),rhsMax =   1.56762458921340E-03  1.30993178196558E-02
 cg2d: Sum(rhs),rhsMax =   1.56827744134925E-03  1.30992681442174E-02
 cg2d: Sum(rhs),rhsMax =   1.56890730863493E-03  1.30992183879462E-02
 cg2d: Sum(rhs),rhsMax =   1.56951424837086E-03  1.30991685555297E-02
 cg2d: Sum(rhs),rhsMax =   1.57009852422801E-03  1.30991186428960E-02
 cg2d: Sum(rhs),rhsMax =   1.57066027274615E-03  1.30990686523396E-02
 cg2d: Sum(rhs),rhsMax =   1.57121933205887E-03  1.30990185954769E-02
 cg2d: Sum(rhs),rhsMax =   1.57175569383029E-03  1.30989684495091E-02
 cg2d: Sum(rhs),rhsMax =   1.57226962673378E-03  1.30989182331403E-02
 cg2d: Sum(rhs),rhsMax =   1.57276135558999E-03  1.30988679355950E-02
 cg2d: Sum(rhs),rhsMax =   1.57324966990503E-03  1.30988175637693E-02
 cg2d: Sum(rhs),rhsMax =   1.57371594157035E-03  1.30987671134440E-02
 cg2d: Sum(rhs),rhsMax =   1.57416046414102E-03  1.30987165905185E-02
 cg2d: Sum(rhs),rhsMax =   1.57458367298095E-03  1.30986659901729E-02
 cg2d: Sum(rhs),rhsMax =   1.57500370103789E-03  1.30986153094126E-02
 cg2d: Sum(rhs),rhsMax =   1.57540266881652E-03  1.30985645583259E-02
 cg2d: Sum(rhs),rhsMax =   1.57578117750020E-03  1.30985137304329E-02
 cg2d: Sum(rhs),rhsMax =   1.57613952350387E-03  1.30984628269407E-02
 cg2d: Sum(rhs),rhsMax =   1.57647847941146E-03  1.30984118504260E-02
 cg2d: Sum(rhs),rhsMax =   1.57681498721341E-03  1.30983607873274E-02
 cg2d: Sum(rhs),rhsMax =   1.57713270913305E-03  1.30983096620094E-02
 cg2d: Sum(rhs),rhsMax =   1.57743221903385E-03  1.30982584547549E-02
 cg2d: Sum(rhs),rhsMax =   1.57771422029774E-03  1.30982071801927E-02
 cg2d: Sum(rhs),rhsMax =   1.57797923783178E-03  1.30981558299584E-02
 cg2d: Sum(rhs),rhsMax =   1.57822812109177E-03  1.30981044007894E-02
 cg2d: Sum(rhs),rhsMax =   1.57846149182147E-03  1.30980528948379E-02
 cg2d: Sum(rhs),rhsMax =   1.57869491919087E-03  1.30980013194157E-02
 cg2d: Sum(rhs),rhsMax =   1.57891399570325E-03  1.30979496686912E-02
 cg2d: Sum(rhs),rhsMax =   1.57911954607907E-03  1.30978979459352E-02
 cg2d: Sum(rhs),rhsMax =   1.57931226997398E-03  1.30978461451529E-02
 cg2d: Sum(rhs),rhsMax =   1.57949308512855E-03  1.30977942765446E-02
 cg2d: Sum(rhs),rhsMax =   1.57966273761409E-03  1.30977423293357E-02
 cg2d: Sum(rhs),rhsMax =   1.57983678419363E-03  1.30976903080521E-02
 cg2d: Sum(rhs),rhsMax =   1.58000116098349E-03  1.30976382179190E-02
 cg2d: Sum(rhs),rhsMax =   1.58015684522889E-03  1.30975860525808E-02
 cg2d: Sum(rhs),rhsMax =   1.58030474215136E-03  1.30975338149781E-02
 cg2d: Sum(rhs),rhsMax =   1.58044565110392E-03  1.30974815049892E-02
 cg2d: Sum(rhs),rhsMax =   1.58058075094399E-03  1.30974291211513E-02
 cg2d: Sum(rhs),rhsMax =   1.58071078350438E-03  1.30973766677849E-02
 cg2d: Sum(rhs),rhsMax =   1.58083682753152E-03  1.30973241383091E-02
 cg2d: Sum(rhs),rhsMax =   1.58095978685638E-03  1.30972715387871E-02
 cg2d: Sum(rhs),rhsMax =   1.58108061766793E-03  1.30972188656304E-02
 cg2d: Sum(rhs),rhsMax =   1.58120031567305E-03  1.30971661204929E-02
 cg2d: Sum(rhs),rhsMax =   1.58131979585331E-03  1.30971133054361E-02
 cg2d: Sum(rhs),rhsMax =   1.58144004561767E-03  1.30970604185055E-02
 cg2d: Sum(rhs),rhsMax =   1.58156202899838E-03  1.30970074591331E-02
 cg2d: Sum(rhs),rhsMax =   1.58168668581048E-03  1.30969544284085E-02
 cg2d: Sum(rhs),rhsMax =   1.58181499088133E-03  1.30969013269671E-02
 cg2d: Sum(rhs),rhsMax =   1.58194787112551E-03  1.30968481538323E-02
 cg2d: Sum(rhs),rhsMax =   1.58208625797010E-03  1.30967949099183E-02
 cg2d: Sum(rhs),rhsMax =   1.58223107227296E-03  1.30967415945406E-02
 cg2d: Sum(rhs),rhsMax =   1.58238324932601E-03  1.30966882084494E-02
 cg2d: Sum(rhs),rhsMax =   1.58254367230746E-03  1.30966347502711E-02
(PID.TID 0000.0001)      cg2d_init_res =   2.11144697917699E-03
(PID.TID 0000.0001)      cg2d_iters(min,last) =      -1     333
(PID.TID 0000.0001)      cg2d_last_res =   9.90993073631744E-08
(PID.TID 0000.0001) // =======================================================
(PID.TID 0000.0001) // Begin MONITOR dynamic field statistics
(PID.TID 0000.0001) // =======================================================
(PID.TID 0000.0001) %MON time_tsnumber                =                 14616
(PID.TID 0000.0001) %MON time_secondsf                =   1.7539200000000E+07
(PID.TID 0000.0001) %MON dynstat_eta_max              =   1.2651061289235E-01
(PID.TID 0000.0001) %MON dynstat_eta_min              =  -3.1315544639562E-01
(PID.TID 0000.0001) %MON dynstat_eta_mean             =  -9.8640741126719E-08
(PID.TID 0000.0001) %MON dynstat_eta_sd               =   1.1241762661049E-01
(PID.TID 0000.0001) %MON dynstat_eta_del2             =   6.8095780769837E-07
(PID.TID 0000.0001) %MON dynstat_uvel_max             =   1.1919677856237E-01
(PID.TID 0000.0001) %MON dynstat_uvel_min             =  -1.2459204015477E-01
(PID.TID 0000.0001) %MON dynstat_uvel_mean            =  -1.7356014217520E-08
(PID.TID 0000.0001) %MON dynstat_uvel_sd              =   4.6908808409490E-02
(PID.TID 0000.0001) %MON dynstat_uvel_del2            =   1.0317457386204E-06
(PID.TID 0000.0001) %MON dynstat_vvel_max             =   1.3784406448964E-01
(PID.TID 0000.0001) %MON dynstat_vvel_min             =  -1.1267998016385E-01
(PID.TID 0000.0001) %MON dynstat_vvel_mean            =  -5.1975678175176E-08
(PID.TID 0000.0001) %MON dynstat_vvel_sd              =   4.3969127023793E-02
(PID.TID 0000.0001) %MON dynstat_vvel_del2            =   1.2818806332606E-06
(PID.TID 0000.0001) %MON dynstat_wvel_max             =   7.8338380667265E-09
(PID.TID 0000.0001) %MON dynstat_wvel_min             =  -8.9442663174123E-09
(PID.TID 0000.0001) %MON dynstat_wvel_mean            =   4.0514083529170E-21
(PID.TID 0000.0001) %MON dynstat_wvel_sd              =   3.0107527550956E-09
(PID.TID 0000.0001) %MON dynstat_wvel_del2            =   3.3456856466107E-14
(PID.TID 0000.0001) %MON dynstat_theta_max            =   2.0000000000000E+01
(PID.TID 0000.0001) %MON dynstat_theta_min            =   2.0000000000000E+01
(PID.TID 0000.0001) %MON dynstat_theta_mean           =   1.9999999999999E+01
(PID.TID 0000.0001) %MON dynstat_theta_sd             =   1.1972645097557E-12
(PID.TID 0000.0001) %MON dynstat_theta_del2           =   0.0000000000000E+00
(PID.TID 0000.0001) %MON dynstat_salt_max             =   3.0000000000000E+01
(PID.TID 0000.0001) %MON dynstat_salt_min             =   3.0000000000000E+01
(PID.TID 0000.0001) %MON dynstat_salt_mean            =   2.9999999999998E+01
(PID.TID 0000.0001) %MON dynstat_salt_sd              =   2.1529444893531E-12
(PID.TID 0000.0001) %MON dynstat_salt_del2            =   0.0000000000000E+00
(PID.TID 0000.0001) %MON trAdv_CFL_u_max              =   2.9901448476878E-02
(PID.TID 0000.0001) %MON trAdv_CFL_v_max              =   3.3081162748789E-02
(PID.TID 0000.0001) %MON trAdv_CFL_w_max              =   2.0015080877815E-09
(PID.TID 0000.0001) %MON advcfl_uvel_max              =   2.9902089637144E-02
(PID.TID 0000.0001) %MON advcfl_vvel_max              =   3.3082575477515E-02
(PID.TID 0000.0001) %MON advcfl_wvel_max              =   4.2932478323579E-09
(PID.TID 0000.0001) %MON advcfl_W_hf_max              =   0.0000000000000E+00
(PID.TID 0000.0001) %MON pe_b_mean                    =   1.2930121358655E-05
(PID.TID 0000.0001) %MON ke_max                       =   9.5506182378183E-03
(PID.TID 0000.0001) %MON ke_mean                      =   2.0575564943866E-03
(PID.TID 0000.0001) %MON ke_vol                       =   7.2529629296391E+15
(PID.TID 0000.0001) %MON vort_r_min                   =  -4.1703288440563E-06
(PID.TID 0000.0001) %MON vort_r_max                   =   3.3688162187139E-06
(PID.TID 0000.0001) %MON vort_a_mean                  =   1.0615000000000E-04
(PID.TID 0000.0001) %MON vort_a_sd                    =   3.6327060203915E-06
(PID.TID 0000.0001) %MON vort_p_mean                  =   1.1210870169429E-04
(PID.TID 0000.0001) %MON vort_p_sd                    =   2.1067389720013E-05
(PID.TID 0000.0001) %MON surfExpan_theta_mean         =   8.1104862766019E-20
(PID.TID 0000.0001) %MON surfExpan_salt_mean          =   1.2165849177212E-19
(PID.TID 0000.0001) // =======================================================
(PID.TID 0000.0001) // End MONITOR dynamic field statistics
(PID.TID 0000.0001) // =======================================================
 cg2d: Sum(rhs),rhsMax =   1.58271325620277E-03  1.30965812259821E-02
 cg2d: Sum(rhs),rhsMax =   1.58289282960009E-03  1.30965276297697E-02
 cg2d: Sum(rhs),rhsMax =   1.58306845016990E-03  1.30964739697849E-02
 cg2d: Sum(rhs),rhsMax =   1.58325545112652E-03  1.30964202306164E-02
 cg2d: Sum(rhs),rhsMax =   1.58345476611806E-03  1.30963664269006E-02
 cg2d: Sum(rhs),rhsMax =   1.58366694275209E-03  1.30963125500394E-02
 cg2d: Sum(rhs),rhsMax =   1.58389299429831E-03  1.30962586066171E-02
 cg2d: Sum(rhs),rhsMax =   1.58413347284534E-03  1.30962045885416E-02
 cg2d: Sum(rhs),rhsMax =   1.58437379888064E-03  1.30961505078331E-02
 cg2d: Sum(rhs),rhsMax =   1.58462950356587E-03  1.30960963565774E-02
 cg2d: Sum(rhs),rhsMax =   1.58490142404432E-03  1.30960421337383E-02
 cg2d: Sum(rhs),rhsMax =   1.58518988309458E-03  1.30959878412272E-02
 cg2d: Sum(rhs),rhsMax =   1.58549578865963E-03  1.30959334842495E-02
 cg2d: Sum(rhs),rhsMax =   1.58580298906661E-03  1.30958790647359E-02
 cg2d: Sum(rhs),rhsMax =   1.58612805606492E-03  1.30958245674547E-02
 cg2d: Sum(rhs),rhsMax =   1.58647152591527E-03  1.30957700065228E-02
 cg2d: Sum(rhs),rhsMax =   1.58683378472235E-03  1.30957153724141E-02
 cg2d: Sum(rhs),rhsMax =   1.58721529889450E-03  1.30956606752271E-02
 cg2d: Sum(rhs),rhsMax =   1.58759853178279E-03  1.30956059097518E-02
 cg2d: Sum(rhs),rhsMax =   1.58800105969050E-03  1.30955510763167E-02
 cg2d: Sum(rhs),rhsMax =   1.58842338723737E-03  1.30954961737606E-02
 cg2d: Sum(rhs),rhsMax =   1.58886560426926E-03  1.30954412044609E-02
 cg2d: Sum(rhs),rhsMax =   1.58930933664042E-03  1.30953861689640E-02
 cg2d: Sum(rhs),rhsMax =   1.58977293886837E-03  1.30953310671135E-02
 cg2d: Sum(rhs),rhsMax =   1.59025657294680E-03  1.30952758981223E-02
 cg2d: Sum(rhs),rhsMax =   1.59076035684005E-03  1.30952206619249E-02
 cg2d: Sum(rhs),rhsMax =   1.59126444080987E-03  1.30951653510555E-02
 cg2d: Sum(rhs),rhsMax =   1.59178825044538E-03  1.30951099829602E-02
 cg2d: Sum(rhs),rhsMax =   1.59233193620433E-03  1.30950545467324E-02
 cg2d: Sum(rhs),rhsMax =   1.59289549441518E-03  1.30949990458803E-02
 cg2d: Sum(rhs),rhsMax =   1.59345785257268E-03  1.30949434761625E-02
 cg2d: Sum(rhs),rhsMax =   1.59403939440530E-03  1.30948878422316E-02
 cg2d: Sum(rhs),rhsMax =   1.59464021442367E-03  1.30948321443906E-02
 cg2d: Sum(rhs),rhsMax =   1.59526013562461E-03  1.30947763809843E-02
 cg2d: Sum(rhs),rhsMax =   1.59587736819261E-03  1.30947205419424E-02
 cg2d: Sum(rhs),rhsMax =   1.59651286101720E-03  1.30946646491004E-02
 cg2d: Sum(rhs),rhsMax =   1.59716669847211E-03  1.30946086873520E-02
 cg2d: Sum(rhs),rhsMax =   1.59781640863753E-03  1.30945526661100E-02
 cg2d: Sum(rhs),rhsMax =   1.59848326831850E-03  1.30944965758643E-02
 cg2d: Sum(rhs),rhsMax =   1.59916752378398E-03  1.30944404245503E-02
 cg2d: Sum(rhs),rhsMax =   1.59986884215388E-03  1.30943842046057E-02
 cg2d: Sum(rhs),rhsMax =   1.60056358631601E-03  1.30943279229730E-02
 cg2d: Sum(rhs),rhsMax =   1.60127431106148E-03  1.30942715764028E-02
 cg2d: Sum(rhs),rhsMax =   1.60200106089500E-03  1.30942151667183E-02
 cg2d: Sum(rhs),rhsMax =   1.60271946377922E-03  1.30941587035912E-02
 cg2d: Sum(rhs),rhsMax =   1.60345251433781E-03  1.30941021646209E-02
 cg2d: Sum(rhs),rhsMax =   1.60420041548238E-03  1.30940455655908E-02
 cg2d: Sum(rhs),rhsMax =   1.60493759033133E-03  1.30939888999211E-02
 cg2d: Sum(rhs),rhsMax =   1.60568828030056E-03  1.30939321731706E-02
 cg2d: Sum(rhs),rhsMax =   1.60642579498225E-03  1.30938753818965E-02
 cg2d: Sum(rhs),rhsMax =   1.60717584731730E-03  1.30938185292595E-02
 cg2d: Sum(rhs),rhsMax =   1.60782220480313E-03  1.30937616174115E-02
 cg2d: Sum(rhs),rhsMax =   1.60847790429463E-03  1.30937046391126E-02
 cg2d: Sum(rhs),rhsMax =   1.60914285839737E-03  1.30936476017550E-02
 cg2d: Sum(rhs),rhsMax =   1.60978883852433E-03  1.30935904935423E-02
 cg2d: Sum(rhs),rhsMax =   1.61044326951108E-03  1.30935333343733E-02
 cg2d: Sum(rhs),rhsMax =   1.61110579861220E-03  1.30934761125797E-02
 cg2d: Sum(rhs),rhsMax =   1.61177631353177E-03  1.30934188258588E-02
 cg2d: Sum(rhs),rhsMax =   1.61245465107434E-03  1.30933614770832E-02
 cg2d: Sum(rhs),rhsMax =   1.61314066280529E-03  1.30933040708403E-02
 cg2d: Sum(rhs),rhsMax =   1.61380698101160E-03  1.30932465980923E-02
 cg2d: Sum(rhs),rhsMax =   1.61447997655576E-03  1.30931890696415E-02
 cg2d: Sum(rhs),rhsMax =   1.61515984739622E-03  1.30931314778950E-02
 cg2d: Sum(rhs),rhsMax =   1.61584610896311E-03  1.30930738270898E-02
 cg2d: Sum(rhs),rhsMax =   1.61653893347466E-03  1.30930161137928E-02
 cg2d: Sum(rhs),rhsMax =   1.61723792737078E-03  1.30929583384352E-02
 cg2d: Sum(rhs),rhsMax =   1.61794321148509E-03  1.30929005074623E-02
 cg2d: Sum(rhs),rhsMax =   1.61865442690646E-03  1.30928426143618E-02
 cg2d: Sum(rhs),rhsMax =   1.61937164405587E-03  1.30927846635886E-02
 cg2d: Sum(rhs),rhsMax =   1.62009458861703E-03  1.30927266505335E-02
 cg2d: Sum(rhs),rhsMax =   1.62082329101802E-03  1.30926685780543E-02
 cg2d: Sum(rhs),rhsMax =   1.62152842846130E-03  1.30926104460346E-02
(PID.TID 0000.0001)      cg2d_init_res =   2.09065753254200E-03
(PID.TID 0000.0001)      cg2d_iters(min,last) =      -1     353
(PID.TID 0000.0001)      cg2d_last_res =   9.63079554616843E-08
(PID.TID 0000.0001) // =======================================================
(PID.TID 0000.0001) // Begin MONITOR dynamic field statistics
(PID.TID 0000.0001) // =======================================================
(PID.TID 0000.0001) %MON time_tsnumber                =                 14688
(PID.TID 0000.0001) %MON time_secondsf                =   1.7625600000000E+07
(PID.TID 0000.0001) %MON dynstat_eta_max              =   1.2665197836269E-01
(PID.TID 0000.0001) %MON dynstat_eta_min              =  -3.1390382089233E-01
(PID.TID 0000.0001) %MON dynstat_eta_mean             =  -1.0107300412519E-07
(PID.TID 0000.0001) %MON dynstat_eta_sd               =   1.1261050417353E-01
(PID.TID 0000.0001) %MON dynstat_eta_del2             =   6.8214055409099E-07
(PID.TID 0000.0001) %MON dynstat_uvel_max             =   1.1964666256181E-01
(PID.TID 0000.0001) %MON dynstat_uvel_min             =  -1.2478231533797E-01
(PID.TID 0000.0001) %MON dynstat_uvel_mean            =  -2.5335159196279E-08
(PID.TID 0000.0001) %MON dynstat_uvel_sd              =   4.7017671776351E-02
(PID.TID 0000.0001) %MON dynstat_uvel_del2            =   1.0335366796880E-06
(PID.TID 0000.0001) %MON dynstat_vvel_max             =   1.3827170620711E-01
(PID.TID 0000.0001) %MON dynstat_vvel_min             =  -1.1297021166455E-01
(PID.TID 0000.0001) %MON dynstat_vvel_mean            =  -4.7485180289507E-08
(PID.TID 0000.0001) %MON dynstat_vvel_sd              =   4.4043164088312E-02
(PID.TID 0000.0001) %MON dynstat_vvel_del2            =   1.2809714352788E-06
(PID.TID 0000.0001) %MON dynstat_wvel_max             =   7.4396999325836E-09
(PID.TID 0000.0001) %MON dynstat_wvel_min             =  -8.9148873370141E-09
(PID.TID 0000.0001) %MON dynstat_wvel_mean            =  -1.1943101379670E-21
(PID.TID 0000.0001) %MON dynstat_wvel_sd              =   3.0035890426005E-09
(PID.TID 0000.0001) %MON dynstat_wvel_del2            =   3.3069225089947E-14
(PID.TID 0000.0001) %MON dynstat_theta_max            =   2.0000000000000E+01
(PID.TID 0000.0001) %MON dynstat_theta_min            =   2.0000000000000E+01
(PID.TID 0000.0001) %MON dynstat_theta_mean           =   1.9999999999999E+01
(PID.TID 0000.0001) %MON dynstat_theta_sd             =   1.1972645097557E-12
(PID.TID 0000.0001) %MON dynstat_theta_del2           =   0.0000000000000E+00
(PID.TID 0000.0001) %MON dynstat_salt_max             =   3.0000000000000E+01
(PID.TID 0000.0001) %MON dynstat_salt_min             =   3.0000000000000E+01
(PID.TID 0000.0001) %MON dynstat_salt_mean            =   2.9999999999998E+01
(PID.TID 0000.0001) %MON dynstat_salt_sd              =   2.1529444893531E-12
(PID.TID 0000.0001) %MON dynstat_salt_del2            =   0.0000000000000E+00
(PID.TID 0000.0001) %MON trAdv_CFL_u_max              =   2.9947128030849E-02
(PID.TID 0000.0001) %MON trAdv_CFL_v_max              =   3.3183771230584E-02
(PID.TID 0000.0001) %MON trAdv_CFL_w_max              =   1.9016384976360E-09
(PID.TID 0000.0001) %MON advcfl_uvel_max              =   2.9947755681113E-02
(PID.TID 0000.0001) %MON advcfl_vvel_max              =   3.3185209489706E-02
(PID.TID 0000.0001) %MON advcfl_wvel_max              =   4.2791459217668E-09
(PID.TID 0000.0001) %MON advcfl_W_hf_max              =   0.0000000000000E+00
(PID.TID 0000.0001) %MON pe_b_mean                    =   1.2974528447119E-05
(PID.TID 0000.0001) %MON ke_max                       =   9.6077465966859E-03
(PID.TID 0000.0001) %MON ke_mean                      =   2.0658894771230E-03
(PID.TID 0000.0001) %MON ke_vol                       =   7.2529629296391E+15
(PID.TID 0000.0001) %MON vort_r_min                   =  -4.1690806556138E-06
(PID.TID 0000.0001) %MON vort_r_max                   =   3.3675185084825E-06
(PID.TID 0000.0001) %MON vort_a_mean                  =   1.0615000000000E-04
(PID.TID 0000.0001) %MON vort_a_sd                    =   3.6329477052624E-06
(PID.TID 0000.0001) %MON vort_p_mean                  =   1.1210870169429E-04
(PID.TID 0000.0001) %MON vort_p_sd                    =   2.1067445975426E-05
(PID.TID 0000.0001) %MON surfExpan_theta_mean         =  -2.3938959157307E-20
(PID.TID 0000.0001) %MON surfExpan_salt_mean          =  -3.5889650179788E-20
(PID.TID 0000.0001) // =======================================================
(PID.TID 0000.0001) // End MONITOR dynamic field statistics
(PID.TID 0000.0001) // =======================================================
 cg2d: Sum(rhs),rhsMax =   1.62223853417117E-03  1.30925522573209E-02
 cg2d: Sum(rhs),rhsMax =   1.62295382541220E-03  1.30924940068082E-02
 cg2d: Sum(rhs),rhsMax =   1.62367387235495E-03  1.30924356998288E-02
 cg2d: Sum(rhs),rhsMax =   1.62439879763681E-03  1.30923773321040E-02
 cg2d: Sum(rhs),rhsMax =   1.62512835134748E-03  1.30923189087780E-02
 cg2d: Sum(rhs),rhsMax =   1.62586237375415E-03  1.30922604237779E-02
 cg2d: Sum(rhs),rhsMax =   1.62660110466841E-03  1.30922018826094E-02
 cg2d: Sum(rhs),rhsMax =   1.62693340294984E-03  1.30921432960100E-02
 cg2d: Sum(rhs),rhsMax =   1.62726669051509E-03  1.30920846401558E-02
 cg2d: Sum(rhs),rhsMax =   1.62752578921370E-03  1.30920259059257E-02
 cg2d: Sum(rhs),rhsMax =   1.62778524865802E-03  1.30919671357551E-02
 cg2d: Sum(rhs),rhsMax =   1.62804532631721E-03  1.30919083088057E-02
 cg2d: Sum(rhs),rhsMax =   1.62830582637461E-03  1.30918494249329E-02
 cg2d: Sum(rhs),rhsMax =   1.62856688773954E-03  1.30917904807498E-02
 cg2d: Sum(rhs),rhsMax =   1.62882833298934E-03  1.30917314817402E-02
 cg2d: Sum(rhs),rhsMax =   1.62909025887724E-03  1.30916724242660E-02
 cg2d: Sum(rhs),rhsMax =   1.62935249985697E-03  1.30916133120219E-02
 cg2d: Sum(rhs),rhsMax =   1.62961522805500E-03  1.30915541424563E-02
 cg2d: Sum(rhs),rhsMax =   1.62987827105769E-03  1.30914949188139E-02
 cg2d: Sum(rhs),rhsMax =   1.63014175350238E-03  1.30914356364317E-02
 cg2d: Sum(rhs),rhsMax =   1.63040562023669E-03  1.30913763006641E-02
 cg2d: Sum(rhs),rhsMax =   1.63066982473491E-03  1.30913169075298E-02
 cg2d: Sum(rhs),rhsMax =   1.63093437582179E-03  1.30912574623096E-02
 cg2d: Sum(rhs),rhsMax =   1.63119922109163E-03  1.30911979579234E-02
 cg2d: Sum(rhs),rhsMax =   1.63146440751988E-03  1.30911384013834E-02
 cg2d: Sum(rhs),rhsMax =   1.63172992163001E-03  1.30910787867436E-02
 cg2d: Sum(rhs),rhsMax =   1.63199577552721E-03  1.30910191193091E-02
 cg2d: Sum(rhs),rhsMax =   1.63226191525250E-03  1.30909593975065E-02
 cg2d: Sum(rhs),rhsMax =   1.63252832911515E-03  1.30908996250824E-02
 cg2d: Sum(rhs),rhsMax =   1.63279503687717E-03  1.30908397925807E-02
 cg2d: Sum(rhs),rhsMax =   1.63306197126772E-03  1.30907799068140E-02
 cg2d: Sum(rhs),rhsMax =   1.63332920435690E-03  1.30907199685176E-02
 cg2d: Sum(rhs),rhsMax =   1.63359667833249E-03  1.30906599796601E-02
 cg2d: Sum(rhs),rhsMax =   1.63386441294435E-03  1.30905999332608E-02
 cg2d: Sum(rhs),rhsMax =   1.63413237718014E-03  1.30905398360773E-02
 cg2d: Sum(rhs),rhsMax =   1.63440059241821E-03  1.30904796833040E-02
 cg2d: Sum(rhs),rhsMax =   1.63466897255660E-03  1.30904194815409E-02
 cg2d: Sum(rhs),rhsMax =   1.63493761215197E-03  1.30903592209322E-02
 cg2d: Sum(rhs),rhsMax =   1.63520643992209E-03  1.30902989099993E-02
 cg2d: Sum(rhs),rhsMax =   1.63547546164107E-03  1.30902385464668E-02
 cg2d: Sum(rhs),rhsMax =   1.63574471760190E-03  1.30901781330436E-02
 cg2d: Sum(rhs),rhsMax =   1.63601416112180E-03  1.30901176659697E-02
 cg2d: Sum(rhs),rhsMax =   1.63628366712932E-03  1.30900571483458E-02
 cg2d: Sum(rhs),rhsMax =   1.63655343449606E-03  1.30899965775974E-02
 cg2d: Sum(rhs),rhsMax =   1.63682335749533E-03  1.30899359562508E-02
 cg2d: Sum(rhs),rhsMax =   1.63709345106980E-03  1.30898752825454E-02
 cg2d: Sum(rhs),rhsMax =   1.63736369736559E-03  1.30898145583081E-02
 cg2d: Sum(rhs),rhsMax =   1.63763414090082E-03  1.30897537832766E-02
 cg2d: Sum(rhs),rhsMax =   1.63790471084008E-03  1.30896929584792E-02
 cg2d: Sum(rhs),rhsMax =   1.63817543443967E-03  1.30896320823786E-02
 cg2d: Sum(rhs),rhsMax =   1.63844624572732E-03  1.30895711571919E-02
 cg2d: Sum(rhs),rhsMax =   1.63871724170641E-03  1.30895101782330E-02
 cg2d: Sum(rhs),rhsMax =   1.63898814920756E-03  1.30894491459716E-02
 cg2d: Sum(rhs),rhsMax =   1.63925934491298E-03  1.30893880721080E-02
 cg2d: Sum(rhs),rhsMax =   1.63950059320580E-03  1.30893269458132E-02
 cg2d: Sum(rhs),rhsMax =   1.63974184758814E-03  1.30892657706653E-02
 cg2d: Sum(rhs),rhsMax =   1.63998321016582E-03  1.30892045447132E-02
 cg2d: Sum(rhs),rhsMax =   1.64022459924786E-03  1.30891432691229E-02
 cg2d: Sum(rhs),rhsMax =   1.64046607088319E-03  1.30890819471168E-02
 cg2d: Sum(rhs),rhsMax =   1.64070749157651E-03  1.30890205749997E-02
 cg2d: Sum(rhs),rhsMax =   1.64094903318149E-03  1.30889591531957E-02
 cg2d: Sum(rhs),rhsMax =   1.64119054992356E-03  1.30888976816343E-02
 cg2d: Sum(rhs),rhsMax =   1.64143218704688E-03  1.30888361661886E-02
 cg2d: Sum(rhs),rhsMax =   1.64167376100162E-03  1.30887745998017E-02
 cg2d: Sum(rhs),rhsMax =   1.64191537719810E-03  1.30887129881216E-02
 cg2d: Sum(rhs),rhsMax =   1.64215696575105E-03  1.30886513246812E-02
 cg2d: Sum(rhs),rhsMax =   1.64239866775777E-03  1.30885896173797E-02
 cg2d: Sum(rhs),rhsMax =   1.64264032215733E-03  1.30885278602492E-02
 cg2d: Sum(rhs),rhsMax =   1.64288207525052E-03  1.30884660587419E-02
 cg2d: Sum(rhs),rhsMax =   1.64312381619015E-03  1.30884042074040E-02
 cg2d: Sum(rhs),rhsMax =   1.64336557245199E-03  1.30883423122148E-02
 cg2d: Sum(rhs),rhsMax =   1.64360729849945E-03  1.30882803676407E-02
(PID.TID 0000.0001)      cg2d_init_res =   2.06924358097860E-03
(PID.TID 0000.0001)      cg2d_iters(min,last) =      -1     366
(PID.TID 0000.0001)      cg2d_last_res =   9.09533092741340E-08
(PID.TID 0000.0001) // =======================================================
(PID.TID 0000.0001) // Begin MONITOR dynamic field statistics
(PID.TID 0000.0001) // =======================================================
(PID.TID 0000.0001) %MON time_tsnumber                =                 14760
(PID.TID 0000.0001) %MON time_secondsf                =   1.7712000000000E+07
(PID.TID 0000.0001) %MON dynstat_eta_max              =   1.2679593881865E-01
(PID.TID 0000.0001) %MON dynstat_eta_min              =  -3.1465027834462E-01
(PID.TID 0000.0001) %MON dynstat_eta_mean             =  -1.0238553765702E-07
(PID.TID 0000.0001) %MON dynstat_eta_sd               =   1.1280224911152E-01
(PID.TID 0000.0001) %MON dynstat_eta_del2             =   6.8330519287968E-07
(PID.TID 0000.0001) %MON dynstat_uvel_max             =   1.2007618118053E-01
(PID.TID 0000.0001) %MON dynstat_uvel_min             =  -1.2496865594064E-01
(PID.TID 0000.0001) %MON dynstat_uvel_mean            =  -3.2079166261556E-08
(PID.TID 0000.0001) %MON dynstat_uvel_sd              =   4.7123963944221E-02
(PID.TID 0000.0001) %MON dynstat_uvel_del2            =   1.0352309152159E-06
(PID.TID 0000.0001) %MON dynstat_vvel_max             =   1.3870731178417E-01
(PID.TID 0000.0001) %MON dynstat_vvel_min             =  -1.1324516174545E-01
(PID.TID 0000.0001) %MON dynstat_vvel_mean            =  -4.1873892096995E-08
(PID.TID 0000.0001) %MON dynstat_vvel_sd              =   4.4118525699276E-02
(PID.TID 0000.0001) %MON dynstat_vvel_del2            =   1.2801612803070E-06
(PID.TID 0000.0001) %MON dynstat_wvel_max             =   7.0270608906867E-09
(PID.TID 0000.0001) %MON dynstat_wvel_min             =  -8.8679548026994E-09
(PID.TID 0000.0001) %MON dynstat_wvel_mean            =   5.8906696398115E-21
(PID.TID 0000.0001) %MON dynstat_wvel_sd              =   3.0016017340739E-09
(PID.TID 0000.0001) %MON dynstat_wvel_del2            =   3.2477388263052E-14
(PID.TID 0000.0001) %MON dynstat_theta_max            =   2.0000000000000E+01
(PID.TID 0000.0001) %MON dynstat_theta_min            =   2.0000000000000E+01
(PID.TID 0000.0001) %MON dynstat_theta_mean           =   1.9999999999999E+01
(PID.TID 0000.0001) %MON dynstat_theta_sd             =   1.1972645097557E-12
(PID.TID 0000.0001) %MON dynstat_theta_del2           =   0.0000000000000E+00
(PID.TID 0000.0001) %MON dynstat_salt_max             =   3.0000000000000E+01
(PID.TID 0000.0001) %MON dynstat_salt_min             =   3.0000000000000E+01
(PID.TID 0000.0001) %MON dynstat_salt_mean            =   2.9999999999998E+01
(PID.TID 0000.0001) %MON dynstat_salt_sd              =   2.1529444893531E-12
(PID.TID 0000.0001) %MON dynstat_salt_del2            =   0.0000000000000E+00
(PID.TID 0000.0001) %MON trAdv_CFL_u_max              =   2.9991862482071E-02
(PID.TID 0000.0001) %MON trAdv_CFL_v_max              =   3.3288289226713E-02
(PID.TID 0000.0001) %MON trAdv_CFL_w_max              =   1.7980257042877E-09
(PID.TID 0000.0001) %MON advcfl_uvel_max              =   2.9992477425753E-02
(PID.TID 0000.0001) %MON advcfl_vvel_max              =   3.3289754828200E-02
(PID.TID 0000.0001) %MON advcfl_wvel_max              =   4.2566183052957E-09
(PID.TID 0000.0001) %MON advcfl_W_hf_max              =   0.0000000000000E+00
(PID.TID 0000.0001) %MON pe_b_mean                    =   1.3018750221864E-05
(PID.TID 0000.0001) %MON ke_max                       =   9.6661711082134E-03
(PID.TID 0000.0001) %MON ke_mean                      =   2.0741772647046E-03
(PID.TID 0000.0001) %MON ke_vol                       =   7.2529629296391E+15
(PID.TID 0000.0001) %MON vort_r_min                   =  -4.1677174061341E-06
(PID.TID 0000.0001) %MON vort_r_max                   =   3.3662829525327E-06
(PID.TID 0000.0001) %MON vort_a_mean                  =   1.0615000000000E-04
(PID.TID 0000.0001) %MON vort_a_sd                    =   3.6331856926002E-06
(PID.TID 0000.0001) %MON vort_p_mean                  =   1.1210870169429E-04
(PID.TID 0000.0001) %MON vort_p_sd                    =   2.1067504616628E-05
(PID.TID 0000.0001) %MON surfExpan_theta_mean         =   1.1781836968572E-19
(PID.TID 0000.0001) %MON surfExpan_salt_mean          =   1.7673843176419E-19
(PID.TID 0000.0001) // =======================================================
(PID.TID 0000.0001) // End MONITOR dynamic field statistics
(PID.TID 0000.0001) // =======================================================
 cg2d: Sum(rhs),rhsMax =   1.64384905452137E-03  1.30882183798087E-02
 cg2d: Sum(rhs),rhsMax =   1.64409062696055E-03  1.30881563437462E-02
 cg2d: Sum(rhs),rhsMax =   1.64433233804195E-03  1.30880942641993E-02
 cg2d: Sum(rhs),rhsMax =   1.64457403422383E-03  1.30880321343626E-02
 cg2d: Sum(rhs),rhsMax =   1.64481575681896E-03  1.30879699641703E-02
 cg2d: Sum(rhs),rhsMax =   1.64505737698731E-03  1.30879077446458E-02
 cg2d: Sum(rhs),rhsMax =   1.64529902713750E-03  1.30878454817349E-02
 cg2d: Sum(rhs),rhsMax =   1.64554063674588E-03  1.30877831717434E-02
 cg2d: Sum(rhs),rhsMax =   1.64578222047548E-03  1.30877208198571E-02
 cg2d: Sum(rhs),rhsMax =   1.64602378970818E-03  1.30876584198355E-02
 cg2d: Sum(rhs),rhsMax =   1.64626528120450E-03  1.30875959825857E-02
 cg2d: Sum(rhs),rhsMax =   1.64650677493095E-03  1.30875334936678E-02
 cg2d: Sum(rhs),rhsMax =   1.64674823819231E-03  1.30874709646964E-02
 cg2d: Sum(rhs),rhsMax =   1.64698968249459E-03  1.30874083887133E-02
 cg2d: Sum(rhs),rhsMax =   1.64723109968035E-03  1.30873457738704E-02
 cg2d: Sum(rhs),rhsMax =   1.64747244015862E-03  1.30872831093064E-02
 cg2d: Sum(rhs),rhsMax =   1.64771376715473E-03  1.30872204073853E-02
 cg2d: Sum(rhs),rhsMax =   1.64795502922493E-03  1.30871576572957E-02
 cg2d: Sum(rhs),rhsMax =   1.64819617709819E-03  1.30870948687630E-02
 cg2d: Sum(rhs),rhsMax =   1.64843733168200E-03  1.30870320332252E-02
 cg2d: Sum(rhs),rhsMax =   1.64867839442491E-03  1.30869691605012E-02
 cg2d: Sum(rhs),rhsMax =   1.64891944323986E-03  1.30869062411448E-02
 cg2d: Sum(rhs),rhsMax =   1.64916042891287E-03  1.30868432831834E-02
 cg2d: Sum(rhs),rhsMax =   1.64940136303950E-03  1.30867802785383E-02
 cg2d: Sum(rhs),rhsMax =   1.64964222852341E-03  1.30867172375071E-02
 cg2d: Sum(rhs),rhsMax =   1.64988303369203E-03  1.30866541500753E-02
 cg2d: Sum(rhs),rhsMax =   1.65012368285101E-03  1.30865910262300E-02
 cg2d: Sum(rhs),rhsMax =   1.65036430934601E-03  1.30865278581283E-02
 cg2d: Sum(rhs),rhsMax =   1.65060485526229E-03  1.30864646519369E-02
 cg2d: Sum(rhs),rhsMax =   1.65084537882984E-03  1.30864014009819E-02
 cg2d: Sum(rhs),rhsMax =   1.65108582653668E-03  1.30863381139267E-02
 cg2d: Sum(rhs),rhsMax =   1.65132620590238E-03  1.30862747823903E-02
 cg2d: Sum(rhs),rhsMax =   1.65156645411853E-03  1.30862114153797E-02
 cg2d: Sum(rhs),rhsMax =   1.65180665642983E-03  1.30861480030193E-02
 cg2d: Sum(rhs),rhsMax =   1.65204669592614E-03  1.30860845560907E-02
 cg2d: Sum(rhs),rhsMax =   1.65228673472594E-03  1.30860210651728E-02
 cg2d: Sum(rhs),rhsMax =   1.65252659793798E-03  1.30859575383295E-02
 cg2d: Sum(rhs),rhsMax =   1.65276644702496E-03  1.30858939699758E-02
 cg2d: Sum(rhs),rhsMax =   1.65300618206515E-03  1.30858303662215E-02
 cg2d: Sum(rhs),rhsMax =   1.65324586075636E-03  1.30857667194892E-02
 cg2d: Sum(rhs),rhsMax =   1.65348532251559E-03  1.30857030376093E-02
 cg2d: Sum(rhs),rhsMax =   1.65372472695844E-03  1.30856393163963E-02
 cg2d: Sum(rhs),rhsMax =   1.65396408908502E-03  1.30855755563991E-02
 cg2d: Sum(rhs),rhsMax =   1.65420336755481E-03  1.30855117585816E-02
 cg2d: Sum(rhs),rhsMax =   1.65444254709090E-03  1.30854479248794E-02
 cg2d: Sum(rhs),rhsMax =   1.65468160954814E-03  1.30853840532244E-02
 cg2d: Sum(rhs),rhsMax =   1.65492056622682E-03  1.30853201431877E-02
 cg2d: Sum(rhs),rhsMax =   1.65515947642474E-03  1.30852561954150E-02
 cg2d: Sum(rhs),rhsMax =   1.65539820693515E-03  1.30851922120666E-02
 cg2d: Sum(rhs),rhsMax =   1.65563686609974E-03  1.30851281922836E-02
 cg2d: Sum(rhs),rhsMax =   1.65587532967566E-03  1.30850641383882E-02
 cg2d: Sum(rhs),rhsMax =   1.65611375856122E-03  1.30850000436154E-02
 cg2d: Sum(rhs),rhsMax =   1.65635203044081E-03  1.30849359148547E-02
 cg2d: Sum(rhs),rhsMax =   1.65659018904015E-03  1.30848717506665E-02
 cg2d: Sum(rhs),rhsMax =   1.65682827195758E-03  1.30848075507816E-02
 cg2d: Sum(rhs),rhsMax =   1.65706622523772E-03  1.30847433141284E-02
 cg2d: Sum(rhs),rhsMax =   1.65730408980900E-03  1.30846790438238E-02
 cg2d: Sum(rhs),rhsMax =   1.65754180882416E-03  1.30846147383328E-02
 cg2d: Sum(rhs),rhsMax =   1.65777939338409E-03  1.30845503982161E-02
 cg2d: Sum(rhs),rhsMax =   1.65801685462053E-03  1.30844860225250E-02
 cg2d: Sum(rhs),rhsMax =   1.65825414107405E-03  1.30844216129393E-02
 cg2d: Sum(rhs),rhsMax =   1.65849137708656E-03  1.30843571705452E-02
 cg2d: Sum(rhs),rhsMax =   1.65872846014647E-03  1.30842926946751E-02
 cg2d: Sum(rhs),rhsMax =   1.65896539648228E-03  1.30842281831200E-02
 cg2d: Sum(rhs),rhsMax =   1.65920221737886E-03  1.30841636374795E-02
 cg2d: Sum(rhs),rhsMax =   1.65943888846608E-03  1.30840990586645E-02
 cg2d: Sum(rhs),rhsMax =   1.65967548431954E-03  1.30840344487085E-02
 cg2d: Sum(rhs),rhsMax =   1.65991194376693E-03  1.30839698048190E-02
 cg2d: Sum(rhs),rhsMax =   1.66014825027874E-03  1.30839051285854E-02
 cg2d: Sum(rhs),rhsMax =   1.66038444265028E-03  1.30838404198455E-02
 cg2d: Sum(rhs),rhsMax =   1.66062037598722E-03  1.30837756792068E-02
 cg2d: Sum(rhs),rhsMax =   1.66085626710624E-03  1.30837109073856E-02
(PID.TID 0000.0001)      cg2d_init_res =   2.04839906583577E-03
(PID.TID 0000.0001)      cg2d_iters(min,last) =      -1     366
(PID.TID 0000.0001)      cg2d_last_res =   9.40016743517226E-08
(PID.TID 0000.0001) // =======================================================
(PID.TID 0000.0001) // Begin MONITOR dynamic field statistics
(PID.TID 0000.0001) // =======================================================
(PID.TID 0000.0001) %MON time_tsnumber                =                 14832
(PID.TID 0000.0001) %MON time_secondsf                =   1.7798400000000E+07
(PID.TID 0000.0001) %MON dynstat_eta_max              =   1.2694137840633E-01
(PID.TID 0000.0001) %MON dynstat_eta_min              =  -3.1539335147839E-01
(PID.TID 0000.0001) %MON dynstat_eta_mean             =  -1.0342335735799E-07
(PID.TID 0000.0001) %MON dynstat_eta_sd               =   1.1299272118123E-01
(PID.TID 0000.0001) %MON dynstat_eta_del2             =   6.8445343886421E-07
(PID.TID 0000.0001) %MON dynstat_uvel_max             =   1.2047958643873E-01
(PID.TID 0000.0001) %MON dynstat_uvel_min             =  -1.2515132669633E-01
(PID.TID 0000.0001) %MON dynstat_uvel_mean            =  -3.7159408817680E-08
(PID.TID 0000.0001) %MON dynstat_uvel_sd              =   4.7226769393449E-02
(PID.TID 0000.0001) %MON dynstat_uvel_del2            =   1.0368258085162E-06
(PID.TID 0000.0001) %MON dynstat_vvel_max             =   1.3915124132600E-01
(PID.TID 0000.0001) %MON dynstat_vvel_min             =  -1.1350579510651E-01
(PID.TID 0000.0001) %MON dynstat_vvel_mean            =  -3.5383867633812E-08
(PID.TID 0000.0001) %MON dynstat_vvel_sd              =   4.4196115147837E-02
(PID.TID 0000.0001) %MON dynstat_vvel_del2            =   1.2794660403837E-06
(PID.TID 0000.0001) %MON dynstat_wvel_max             =   6.7010251560714E-09
(PID.TID 0000.0001) %MON dynstat_wvel_min             =  -8.8032834278420E-09
(PID.TID 0000.0001) %MON dynstat_wvel_mean            =   9.1887220856246E-21
(PID.TID 0000.0001) %MON dynstat_wvel_sd              =   3.0030441816265E-09
(PID.TID 0000.0001) %MON dynstat_wvel_del2            =   3.2301187136475E-14
(PID.TID 0000.0001) %MON dynstat_theta_max            =   2.0000000000000E+01
(PID.TID 0000.0001) %MON dynstat_theta_min            =   2.0000000000000E+01
(PID.TID 0000.0001) %MON dynstat_theta_mean           =   1.9999999999999E+01
(PID.TID 0000.0001) %MON dynstat_theta_sd             =   1.1972645097557E-12
(PID.TID 0000.0001) %MON dynstat_theta_del2           =   0.0000000000000E+00
(PID.TID 0000.0001) %MON dynstat_salt_max             =   3.0000000000000E+01
(PID.TID 0000.0001) %MON dynstat_salt_min             =   3.0000000000000E+01
(PID.TID 0000.0001) %MON dynstat_salt_mean            =   2.9999999999998E+01
(PID.TID 0000.0001) %MON dynstat_salt_sd              =   2.1529444893531E-12
(PID.TID 0000.0001) %MON dynstat_salt_del2            =   0.0000000000000E+00
(PID.TID 0000.0001) %MON trAdv_CFL_u_max              =   3.0035715208976E-02
(PID.TID 0000.0001) %MON trAdv_CFL_v_max              =   3.3394804386452E-02
(PID.TID 0000.0001) %MON trAdv_CFL_w_max              =   1.7301637127782E-09
(PID.TID 0000.0001) %MON advcfl_uvel_max              =   3.0036318407120E-02
(PID.TID 0000.0001) %MON advcfl_vvel_max              =   3.3396297918240E-02
(PID.TID 0000.0001) %MON advcfl_wvel_max              =   4.2255760453641E-09
(PID.TID 0000.0001) %MON advcfl_W_hf_max              =   0.0000000000000E+00
(PID.TID 0000.0001) %MON pe_b_mean                    =   1.3062752923461E-05
(PID.TID 0000.0001) %MON ke_max                       =   9.7260336892994E-03
(PID.TID 0000.0001) %MON ke_mean                      =   2.0824160380622E-03
(PID.TID 0000.0001) %MON ke_vol                       =   7.2529629296391E+15
(PID.TID 0000.0001) %MON vort_r_min                   =  -4.1662587087504E-06
(PID.TID 0000.0001) %MON vort_r_max                   =   3.3652786838803E-06
(PID.TID 0000.0001) %MON vort_a_mean                  =   1.0615000000000E-04
(PID.TID 0000.0001) %MON vort_a_sd                    =   3.6334199816340E-06
(PID.TID 0000.0001) %MON vort_p_mean                  =   1.1210870169429E-04
(PID.TID 0000.0001) %MON vort_p_sd                    =   2.1067566232206E-05
(PID.TID 0000.0001) %MON surfExpan_theta_mean         =   1.8374290888824E-19
(PID.TID 0000.0001) %MON surfExpan_salt_mean          =   2.7561317040583E-19
(PID.TID 0000.0001) // =======================================================
(PID.TID 0000.0001) // End MONITOR dynamic field statistics
(PID.TID 0000.0001) // =======================================================
 cg2d: Sum(rhs),rhsMax =   1.66109203866657E-03  1.30836461025892E-02
 cg2d: Sum(rhs),rhsMax =   1.66132768949239E-03  1.30835812655925E-02
 cg2d: Sum(rhs),rhsMax =   1.66156306908792E-03  1.30835163982828E-02
 cg2d: Sum(rhs),rhsMax =   1.66179841560645E-03  1.30834514990669E-02
 cg2d: Sum(rhs),rhsMax =   1.66203340709624E-03  1.30833865682964E-02
 cg2d: Sum(rhs),rhsMax =   1.66226846284403E-03  1.30833216077449E-02
 cg2d: Sum(rhs),rhsMax =   1.66250332470909E-03  1.30832566169574E-02
 cg2d: Sum(rhs),rhsMax =   1.66273810720365E-03  1.30831915959455E-02
 cg2d: Sum(rhs),rhsMax =   1.66297274957914E-03  1.30831265449662E-02
 cg2d: Sum(rhs),rhsMax =   1.66320711961376E-03  1.30830614641216E-02
 cg2d: Sum(rhs),rhsMax =   1.66344143923989E-03  1.30829963524055E-02
 cg2d: Sum(rhs),rhsMax =   1.66367560443097E-03  1.30829312114055E-02
 cg2d: Sum(rhs),rhsMax =   1.66390964942066E-03  1.30828660429184E-02
 cg2d: Sum(rhs),rhsMax =   1.66414350983142E-03  1.30828008443871E-02
 cg2d: Sum(rhs),rhsMax =   1.66437722719328E-03  1.30827356171230E-02
 cg2d: Sum(rhs),rhsMax =   1.66461076351264E-03  1.30826703601048E-02
 cg2d: Sum(rhs),rhsMax =   1.66484414793336E-03  1.30826050772983E-02
 cg2d: Sum(rhs),rhsMax =   1.66507741865259E-03  1.30825397655874E-02
 cg2d: Sum(rhs),rhsMax =   1.66531047055756E-03  1.30824744249236E-02
 cg2d: Sum(rhs),rhsMax =   1.66554335451788E-03  1.30824090558954E-02
 cg2d: Sum(rhs),rhsMax =   1.66577615852976E-03  1.30823436618454E-02
 cg2d: Sum(rhs),rhsMax =   1.66600880687052E-03  1.30822782402024E-02
 cg2d: Sum(rhs),rhsMax =   1.66624120439250E-03  1.30822127904537E-02
 cg2d: Sum(rhs),rhsMax =   1.66647350028669E-03  1.30821473146617E-02
 cg2d: Sum(rhs),rhsMax =   1.66670557290030E-03  1.30820818121306E-02
 cg2d: Sum(rhs),rhsMax =   1.66693753643622E-03  1.30820162823739E-02
 cg2d: Sum(rhs),rhsMax =   1.66716933286842E-03  1.30819507259198E-02
 cg2d: Sum(rhs),rhsMax =   1.66740092301267E-03  1.30818851463628E-02
 cg2d: Sum(rhs),rhsMax =   1.66763241531151E-03  1.30818195387038E-02
 cg2d: Sum(rhs),rhsMax =   1.66786366956765E-03  1.30817539083701E-02
 cg2d: Sum(rhs),rhsMax =   1.66809480609479E-03  1.30816882500587E-02
 cg2d: Sum(rhs),rhsMax =   1.66832578418991E-03  1.30816225687143E-02
 cg2d: Sum(rhs),rhsMax =   1.66855661773151E-03  1.30815568602455E-02
 cg2d: Sum(rhs),rhsMax =   1.66878720420885E-03  1.30814911296974E-02
 cg2d: Sum(rhs),rhsMax =   1.66901769167969E-03  1.30814253722070E-02
 cg2d: Sum(rhs),rhsMax =   1.66924796563225E-03  1.30813595935620E-02
 cg2d: Sum(rhs),rhsMax =   1.66947813645290E-03  1.30812937879623E-02
 cg2d: Sum(rhs),rhsMax =   1.66970794031760E-03  1.30812279615540E-02
 cg2d: Sum(rhs),rhsMax =   1.66993770958357E-03  1.30811621098624E-02
 cg2d: Sum(rhs),rhsMax =   1.67016734300280E-03  1.30810962375055E-02
 cg2d: Sum(rhs),rhsMax =   1.67039682847038E-03  1.30810303391118E-02
 cg2d: Sum(rhs),rhsMax =   1.67062609388891E-03  1.30809644206865E-02
 cg2d: Sum(rhs),rhsMax =   1.67085518581832E-03  1.30808984773926E-02
 cg2d: Sum(rhs),rhsMax =   1.67108407348088E-03  1.30808325121673E-02
 cg2d: Sum(rhs),rhsMax =   1.67131282528002E-03  1.30807665237806E-02
 cg2d: Sum(rhs),rhsMax =   1.67154143958233E-03  1.30807005172265E-02
 cg2d: Sum(rhs),rhsMax =   1.67176987240868E-03  1.30806344859412E-02
 cg2d: Sum(rhs),rhsMax =   1.67199797314159E-03  1.30805684373364E-02
 cg2d: Sum(rhs),rhsMax =   1.67222600683793E-03  1.30805023612749E-02
 cg2d: Sum(rhs),rhsMax =   1.67245386495302E-03  1.30804362698665E-02
 cg2d: Sum(rhs),rhsMax =   1.67268155119729E-03  1.30803701547623E-02
 cg2d: Sum(rhs),rhsMax =   1.67290908427478E-03  1.30803040218288E-02
 cg2d: Sum(rhs),rhsMax =   1.67313630177382E-03  1.30802378666415E-02
 cg2d: Sum(rhs),rhsMax =   1.67336339817802E-03  1.30801716893455E-02
 cg2d: Sum(rhs),rhsMax =   1.67359033636366E-03  1.30801054954533E-02
 cg2d: Sum(rhs),rhsMax =   1.67381710659466E-03  1.30800392829647E-02
 cg2d: Sum(rhs),rhsMax =   1.67404372089245E-03  1.30799730485300E-02
 cg2d: Sum(rhs),rhsMax =   1.67427015047742E-03  1.30799067967311E-02
 cg2d: Sum(rhs),rhsMax =   1.67449633664327E-03  1.30798405247821E-02
 cg2d: Sum(rhs),rhsMax =   1.67472240724638E-03  1.30797742361929E-02
 cg2d: Sum(rhs),rhsMax =   1.67494814399624E-03  1.30797079276927E-02
 cg2d: Sum(rhs),rhsMax =   1.67517380115344E-03  1.30796416021239E-02
 cg2d: Sum(rhs),rhsMax =   1.67539920523224E-03  1.30795752572448E-02
 cg2d: Sum(rhs),rhsMax =   1.67562449010819E-03  1.30795088961396E-02
 cg2d: Sum(rhs),rhsMax =   1.67584952891816E-03  1.30794425169581E-02
 cg2d: Sum(rhs),rhsMax =   1.67607444846210E-03  1.30793761210332E-02
 cg2d: Sum(rhs),rhsMax =   1.67629914410526E-03  1.30793097057724E-02
 cg2d: Sum(rhs),rhsMax =   1.67652368326606E-03  1.30792432779196E-02
 cg2d: Sum(rhs),rhsMax =   1.67674801168658E-03  1.30791768305981E-02
 cg2d: Sum(rhs),rhsMax =   1.67697216574595E-03  1.30791103690319E-02
 cg2d: Sum(rhs),rhsMax =   1.67719605663174E-03  1.30790438878005E-02
 cg2d: Sum(rhs),rhsMax =   1.67741981592624E-03  1.30789773967172E-02
(PID.TID 0000.0001)      cg2d_init_res =   2.02928031054946E-03
(PID.TID 0000.0001)      cg2d_iters(min,last) =      -1     366
(PID.TID 0000.0001)      cg2d_last_res =   9.40982989585127E-08
(PID.TID 0000.0001) // =======================================================
(PID.TID 0000.0001) // Begin MONITOR dynamic field statistics
(PID.TID 0000.0001) // =======================================================
(PID.TID 0000.0001) %MON time_tsnumber                =                 14904
(PID.TID 0000.0001) %MON time_secondsf                =   1.7884800000000E+07
(PID.TID 0000.0001) %MON dynstat_eta_max              =   1.2709004749805E-01
(PID.TID 0000.0001) %MON dynstat_eta_min              =  -3.1613135102426E-01
(PID.TID 0000.0001) %MON dynstat_eta_mean             =  -1.0441607771432E-07
(PID.TID 0000.0001) %MON dynstat_eta_sd               =   1.1318176535069E-01
(PID.TID 0000.0001) %MON dynstat_eta_del2             =   6.8558670457317E-07
(PID.TID 0000.0001) %MON dynstat_uvel_max             =   1.2085215935343E-01
(PID.TID 0000.0001) %MON dynstat_uvel_min             =  -1.2533064053146E-01
(PID.TID 0000.0001) %MON dynstat_uvel_mean            =  -4.0235698040186E-08
(PID.TID 0000.0001) %MON dynstat_uvel_sd              =   4.7325309029982E-02
(PID.TID 0000.0001) %MON dynstat_uvel_del2            =   1.0383239520604E-06
(PID.TID 0000.0001) %MON dynstat_vvel_max             =   1.3960347415500E-01
(PID.TID 0000.0001) %MON dynstat_vvel_min             =  -1.1375351486793E-01
(PID.TID 0000.0001) %MON dynstat_vvel_mean            =  -2.8324055303882E-08
(PID.TID 0000.0001) %MON dynstat_vvel_sd              =   4.4276676467533E-02
(PID.TID 0000.0001) %MON dynstat_vvel_del2            =   1.2788924352705E-06
(PID.TID 0000.0001) %MON dynstat_wvel_max             =   6.5432418021373E-09
(PID.TID 0000.0001) %MON dynstat_wvel_min             =  -8.7171421665698E-09
(PID.TID 0000.0001) %MON dynstat_wvel_mean            =   4.7879914274434E-21
(PID.TID 0000.0001) %MON dynstat_wvel_sd              =   3.0056935577732E-09
(PID.TID 0000.0001) %MON dynstat_wvel_del2            =   3.2040135687073E-14
(PID.TID 0000.0001) %MON dynstat_theta_max            =   2.0000000000000E+01
(PID.TID 0000.0001) %MON dynstat_theta_min            =   2.0000000000000E+01
(PID.TID 0000.0001) %MON dynstat_theta_mean           =   1.9999999999999E+01
(PID.TID 0000.0001) %MON dynstat_theta_sd             =   1.1972645097557E-12
(PID.TID 0000.0001) %MON dynstat_theta_del2           =   0.0000000000000E+00
(PID.TID 0000.0001) %MON dynstat_salt_max             =   3.0000000000000E+01
(PID.TID 0000.0001) %MON dynstat_salt_min             =   3.0000000000000E+01
(PID.TID 0000.0001) %MON dynstat_salt_mean            =   2.9999999999998E+01
(PID.TID 0000.0001) %MON dynstat_salt_sd              =   2.1529444893531E-12
(PID.TID 0000.0001) %MON dynstat_salt_del2            =   0.0000000000000E+00
(PID.TID 0000.0001) %MON trAdv_CFL_u_max              =   3.0078761152234E-02
(PID.TID 0000.0001) %MON trAdv_CFL_v_max              =   3.3503313051734E-02
(PID.TID 0000.0001) %MON trAdv_CFL_w_max              =   1.6904618198172E-09
(PID.TID 0000.0001) %MON advcfl_uvel_max              =   3.0079353727551E-02
(PID.TID 0000.0001) %MON advcfl_vvel_max              =   3.3504833797201E-02
(PID.TID 0000.0001) %MON advcfl_wvel_max              =   4.1842282399535E-09
(PID.TID 0000.0001) %MON advcfl_W_hf_max              =   0.0000000000000E+00
(PID.TID 0000.0001) %MON pe_b_mean                    =   1.3106499158016E-05
(PID.TID 0000.0001) %MON ke_max                       =   9.7874224907322E-03
(PID.TID 0000.0001) %MON ke_mean                      =   2.0906013324785E-03
(PID.TID 0000.0001) %MON ke_vol                       =   7.2529629296391E+15
(PID.TID 0000.0001) %MON vort_r_min                   =  -4.1647271684620E-06
(PID.TID 0000.0001) %MON vort_r_max                   =   3.3646037827753E-06
(PID.TID 0000.0001) %MON vort_a_mean                  =   1.0615000000000E-04
(PID.TID 0000.0001) %MON vort_a_sd                    =   3.6336505625636E-06
(PID.TID 0000.0001) %MON vort_p_mean                  =   1.1210870169429E-04
(PID.TID 0000.0001) %MON vort_p_sd                    =   2.1067631208518E-05
(PID.TID 0000.0001) %MON surfExpan_theta_mean         =   9.5749106750641E-20
(PID.TID 0000.0001) %MON surfExpan_salt_mean          =   1.4364282444372E-19
(PID.TID 0000.0001) // =======================================================
(PID.TID 0000.0001) // End MONITOR dynamic field statistics
(PID.TID 0000.0001) // =======================================================
 cg2d: Sum(rhs),rhsMax =   1.67764338911172E-03  1.30789108848540E-02
 cg2d: Sum(rhs),rhsMax =   1.67786677967744E-03  1.30788443612212E-02
 cg2d: Sum(rhs),rhsMax =   1.67808995402370E-03  1.30787778196248E-02
 cg2d: Sum(rhs),rhsMax =   1.67831286700525E-03  1.30787112633230E-02
 cg2d: Sum(rhs),rhsMax =   1.67853567428360E-03  1.30786446939788E-02
 cg2d: Sum(rhs),rhsMax =   1.67875825686954E-03  1.30785781123411E-02
 cg2d: Sum(rhs),rhsMax =   1.67898069104447E-03  1.30785115125004E-02
 cg2d: Sum(rhs),rhsMax =   1.67920279257977E-03  1.30784449028970E-02
 cg2d: Sum(rhs),rhsMax =   1.67942480230930E-03  1.30783782754712E-02
 cg2d: Sum(rhs),rhsMax =   1.67964653837977E-03  1.30783116397716E-02
 cg2d: Sum(rhs),rhsMax =   1.67986816079425E-03  1.30782449852528E-02
 cg2d: Sum(rhs),rhsMax =   1.68008957367142E-03  1.30781783217757E-02
 cg2d: Sum(rhs),rhsMax =   1.68031077953613E-03  1.30781116431876E-02
 cg2d: Sum(rhs),rhsMax =   1.68053179405436E-03  1.30780449554610E-02
 cg2d: Sum(rhs),rhsMax =   1.68075262035668E-03  1.30779782515008E-02
 cg2d: Sum(rhs),rhsMax =   1.68097310107698E-03  1.30779115401112E-02
 cg2d: Sum(rhs),rhsMax =   1.68119350386189E-03  1.30778448120494E-02
 cg2d: Sum(rhs),rhsMax =   1.68141369844445E-03  1.30777780745088E-02
 cg2d: Sum(rhs),rhsMax =   1.68163372231334E-03  1.30777113260528E-02
 cg2d: Sum(rhs),rhsMax =   1.68185354556081E-03  1.30776445675676E-02
 cg2d: Sum(rhs),rhsMax =   1.68207315116558E-03  1.30775777971339E-02
 cg2d: Sum(rhs),rhsMax =   1.68229249751423E-03  1.30775110164522E-02
 cg2d: Sum(rhs),rhsMax =   1.68251170374853E-03  1.30774442276350E-02
 cg2d: Sum(rhs),rhsMax =   1.68273066461411E-03  1.30773774283221E-02
 cg2d: Sum(rhs),rhsMax =   1.68294946475848E-03  1.30773106169378E-02
 cg2d: Sum(rhs),rhsMax =   1.68316793283674E-03  1.30772437969756E-02
 cg2d: Sum(rhs),rhsMax =   1.68338629899421E-03  1.30771769697230E-02
 cg2d: Sum(rhs),rhsMax =   1.68360439514336E-03  1.30771101319802E-02
 cg2d: Sum(rhs),rhsMax =   1.68382234473656E-03  1.30770432872119E-02
 cg2d: Sum(rhs),rhsMax =   1.68404006830210E-03  1.30769764301965E-02
 cg2d: Sum(rhs),rhsMax =   1.68425762751157E-03  1.30769095664979E-02
 cg2d: Sum(rhs),rhsMax =   1.68447487641958E-03  1.30768426944305E-02
 cg2d: Sum(rhs),rhsMax =   1.68469199285245E-03  1.30767758169499E-02
 cg2d: Sum(rhs),rhsMax =   1.68490887363736E-03  1.30767089298466E-02
 cg2d: Sum(rhs),rhsMax =   1.68512549436284E-03  1.30766420354405E-02
 cg2d: Sum(rhs),rhsMax =   1.68534193517291E-03  1.30765751341462E-02
 cg2d: Sum(rhs),rhsMax =   1.68555823663874E-03  1.30765082282074E-02
 cg2d: Sum(rhs),rhsMax =   1.68577429068770E-03  1.30764413117270E-02
 cg2d: Sum(rhs),rhsMax =   1.68599015204408E-03  1.30763743939648E-02
 cg2d: Sum(rhs),rhsMax =   1.68620581182972E-03  1.30763074657824E-02
 cg2d: Sum(rhs),rhsMax =   1.68642125905501E-03  1.30762405353953E-02
 cg2d: Sum(rhs),rhsMax =   1.68663647073177E-03  1.30761735954811E-02
 cg2d: Sum(rhs),rhsMax =   1.68685149085794E-03  1.30761066546430E-02
 cg2d: Sum(rhs),rhsMax =   1.68706619386309E-03  1.30760397052370E-02
 cg2d: Sum(rhs),rhsMax =   1.68728069382342E-03  1.30759727541984E-02
 cg2d: Sum(rhs),rhsMax =   1.68749503943805E-03  1.30759057952528E-02
 cg2d: Sum(rhs),rhsMax =   1.68770919656451E-03  1.30758388340191E-02
 cg2d: Sum(rhs),rhsMax =   1.68792315702333E-03  1.30757718681497E-02
 cg2d: Sum(rhs),rhsMax =   1.68813686500465E-03  1.30757049013535E-02
 cg2d: Sum(rhs),rhsMax =   1.68835037958262E-03  1.30756379271478E-02
 cg2d: Sum(rhs),rhsMax =   1.68856360615678E-03  1.30755709519439E-02
 cg2d: Sum(rhs),rhsMax =   1.68877668099173E-03  1.30755039717735E-02
 cg2d: Sum(rhs),rhsMax =   1.68898947764515E-03  1.30754369916672E-02
 cg2d: Sum(rhs),rhsMax =   1.68920212163655E-03  1.30753700061351E-02
 cg2d: Sum(rhs),rhsMax =   1.68941451740549E-03  1.30753030206274E-02
 cg2d: Sum(rhs),rhsMax =   1.68962672866489E-03  1.30752360316792E-02
 cg2d: Sum(rhs),rhsMax =   1.68983861971839E-03  1.30751690445580E-02
 cg2d: Sum(rhs),rhsMax =   1.69005029300739E-03  1.30751020494910E-02
 cg2d: Sum(rhs),rhsMax =   1.69026182070718E-03  1.30750350595952E-02
 cg2d: Sum(rhs),rhsMax =   1.69047316210779E-03  1.30749680645218E-02
 cg2d: Sum(rhs),rhsMax =   1.69068416424324E-03  1.30749010720548E-02
 cg2d: Sum(rhs),rhsMax =   1.69089505995895E-03  1.30748340736964E-02
 cg2d: Sum(rhs),rhsMax =   1.69110569773520E-03  1.30747670810917E-02
 cg2d: Sum(rhs),rhsMax =   1.69131614672626E-03  1.30747000837741E-02
 cg2d: Sum(rhs),rhsMax =   1.69152636123308E-03  1.30746330908205E-02
 cg2d: Sum(rhs),rhsMax =   1.69173626568973E-03  1.30745660971853E-02
 cg2d: Sum(rhs),rhsMax =   1.69194604140459E-03  1.30744991035578E-02
 cg2d: Sum(rhs),rhsMax =   1.69215557907242E-03  1.30744321089897E-02
 cg2d: Sum(rhs),rhsMax =   1.69236491639235E-03  1.30743651194587E-02
 cg2d: Sum(rhs),rhsMax =   1.69257393497901E-03  1.30742981293196E-02
 cg2d: Sum(rhs),rhsMax =   1.69278278680018E-03  1.30742311430281E-02
 cg2d: Sum(rhs),rhsMax =   1.69299135363631E-03  1.30741641573865E-02
(PID.TID 0000.0001)      cg2d_init_res =   2.01279872572985E-03
(PID.TID 0000.0001)      cg2d_iters(min,last) =      -1     366
(PID.TID 0000.0001)      cg2d_last_res =   9.24165250837096E-08
(PID.TID 0000.0001) // =======================================================
(PID.TID 0000.0001) // Begin MONITOR dynamic field statistics
(PID.TID 0000.0001) // =======================================================
(PID.TID 0000.0001) %MON time_tsnumber                =                 14976
(PID.TID 0000.0001) %MON time_secondsf                =   1.7971200000000E+07
(PID.TID 0000.0001) %MON dynstat_eta_max              =   1.2724313639922E-01
(PID.TID 0000.0001) %MON dynstat_eta_min              =  -3.1686244725501E-01
(PID.TID 0000.0001) %MON dynstat_eta_mean             =  -1.0534551641840E-07
(PID.TID 0000.0001) %MON dynstat_eta_sd               =   1.1336922276265E-01
(PID.TID 0000.0001) %MON dynstat_eta_del2             =   6.8670614980582E-07
(PID.TID 0000.0001) %MON dynstat_uvel_max             =   1.2119038341571E-01
(PID.TID 0000.0001) %MON dynstat_uvel_min             =  -1.2550695801333E-01
(PID.TID 0000.0001) %MON dynstat_uvel_mean            =  -4.1069153188324E-08
(PID.TID 0000.0001) %MON dynstat_uvel_sd              =   4.7418975925238E-02
(PID.TID 0000.0001) %MON dynstat_uvel_del2            =   1.0397330762901E-06
(PID.TID 0000.0001) %MON dynstat_vvel_max             =   1.4006359298968E-01
(PID.TID 0000.0001) %MON dynstat_vvel_min             =  -1.1399005384473E-01
(PID.TID 0000.0001) %MON dynstat_vvel_mean            =  -2.1048071613477E-08
(PID.TID 0000.0001) %MON dynstat_vvel_sd              =   4.4360760921074E-02
(PID.TID 0000.0001) %MON dynstat_vvel_del2            =   1.2784391389736E-06
(PID.TID 0000.0001) %MON dynstat_wvel_max             =   6.3467026711442E-09
(PID.TID 0000.0001) %MON dynstat_wvel_min             =  -8.6091680405661E-09
(PID.TID 0000.0001) %MON dynstat_wvel_mean            =   1.1421492104820E-20
(PID.TID 0000.0001) %MON dynstat_wvel_sd              =   3.0072205299984E-09
(PID.TID 0000.0001) %MON dynstat_wvel_del2            =   3.1746123344892E-14
(PID.TID 0000.0001) %MON dynstat_theta_max            =   2.0000000000000E+01
(PID.TID 0000.0001) %MON dynstat_theta_min            =   2.0000000000000E+01
(PID.TID 0000.0001) %MON dynstat_theta_mean           =   1.9999999999999E+01
(PID.TID 0000.0001) %MON dynstat_theta_sd             =   1.1972645097557E-12
(PID.TID 0000.0001) %MON dynstat_theta_del2           =   0.0000000000000E+00
(PID.TID 0000.0001) %MON dynstat_salt_max             =   3.0000000000000E+01
(PID.TID 0000.0001) %MON dynstat_salt_min             =   3.0000000000000E+01
(PID.TID 0000.0001) %MON dynstat_salt_mean            =   2.9999999999998E+01
(PID.TID 0000.0001) %MON dynstat_salt_sd              =   2.1529444893531E-12
(PID.TID 0000.0001) %MON dynstat_salt_del2            =   0.0000000000000E+00
(PID.TID 0000.0001) %MON trAdv_CFL_u_max              =   3.0121086694237E-02
(PID.TID 0000.0001) %MON trAdv_CFL_v_max              =   3.3613716404512E-02
(PID.TID 0000.0001) %MON trAdv_CFL_w_max              =   1.6386201668580E-09
(PID.TID 0000.0001) %MON advcfl_uvel_max              =   3.0121669923200E-02
(PID.TID 0000.0001) %MON advcfl_vvel_max              =   3.3615262317523E-02
(PID.TID 0000.0001) %MON advcfl_wvel_max              =   4.1324006594718E-09
(PID.TID 0000.0001) %MON advcfl_W_hf_max              =   0.0000000000000E+00
(PID.TID 0000.0001) %MON pe_b_mean                    =   1.3149950415993E-05
(PID.TID 0000.0001) %MON ke_max                       =   9.8503651819344E-03
(PID.TID 0000.0001) %MON ke_mean                      =   2.0987283012330E-03
(PID.TID 0000.0001) %MON ke_vol                       =   7.2529629296391E+15
(PID.TID 0000.0001) %MON vort_r_min                   =  -4.1631485832627E-06
(PID.TID 0000.0001) %MON vort_r_max                   =   3.3641117134860E-06
(PID.TID 0000.0001) %MON vort_a_mean                  =   1.0615000000000E-04
(PID.TID 0000.0001) %MON vort_a_sd                    =   3.6338774401288E-06
(PID.TID 0000.0001) %MON vort_p_mean                  =   1.1210870169429E-04
(PID.TID 0000.0001) %MON vort_p_sd                    =   2.1067699712135E-05
(PID.TID 0000.0001) %MON surfExpan_theta_mean         =   2.2841742510261E-19
(PID.TID 0000.0001) %MON surfExpan_salt_mean          =   3.4260729270232E-19
(PID.TID 0000.0001) // =======================================================
(PID.TID 0000.0001) // End MONITOR dynamic field statistics
(PID.TID 0000.0001) // =======================================================
 cg2d: Sum(rhs),rhsMax =   1.69319976285458E-03  1.30740971757365E-02
 cg2d: Sum(rhs),rhsMax =   1.69340785231641E-03  1.30740301935008E-02
 cg2d: Sum(rhs),rhsMax =   1.69361579474319E-03  1.30739632165232E-02
 cg2d: Sum(rhs),rhsMax =   1.69382352005318E-03  1.30738962420169E-02
 cg2d: Sum(rhs),rhsMax =   1.69403103377656E-03  1.30738292716438E-02
 cg2d: Sum(rhs),rhsMax =   1.69423824257890E-03  1.30737623038244E-02
 cg2d: Sum(rhs),rhsMax =   1.69444524604853E-03  1.30736953421132E-02
 cg2d: Sum(rhs),rhsMax =   1.69465205067725E-03  1.30736283824730E-02
 cg2d: Sum(rhs),rhsMax =   1.69485857149578E-03  1.30735614272626E-02
 cg2d: Sum(rhs),rhsMax =   1.69506492636749E-03  1.30734944775793E-02
 cg2d: Sum(rhs),rhsMax =   1.69527100054378E-03  1.30734275324016E-02
 cg2d: Sum(rhs),rhsMax =   1.69547689422022E-03  1.30733605921275E-02
 cg2d: Sum(rhs),rhsMax =   1.69568254994981E-03  1.30732936567143E-02
 cg2d: Sum(rhs),rhsMax =   1.69588798168455E-03  1.30732267293927E-02
 cg2d: Sum(rhs),rhsMax =   1.69609312811549E-03  1.30731598084354E-02
 cg2d: Sum(rhs),rhsMax =   1.69629808421959E-03  1.30730928918677E-02
 cg2d: Sum(rhs),rhsMax =   1.69650281201961E-03  1.30730259805908E-02
 cg2d: Sum(rhs),rhsMax =   1.69670729192292E-03  1.30729590800753E-02
 cg2d: Sum(rhs),rhsMax =   1.69691155941927E-03  1.30728921831347E-02
 cg2d: Sum(rhs),rhsMax =   1.69711558124929E-03  1.30728252954424E-02
 cg2d: Sum(rhs),rhsMax =   1.69731937068922E-03  1.30727584133314E-02
 cg2d: Sum(rhs),rhsMax =   1.69752287003399E-03  1.30726915415423E-02
 cg2d: Sum(rhs),rhsMax =   1.69772615918278E-03  1.30726246766565E-02
 cg2d: Sum(rhs),rhsMax =   1.69792925320227E-03  1.30725578195681E-02
 cg2d: Sum(rhs),rhsMax =   1.69813208079374E-03  1.30724909720756E-02
 cg2d: Sum(rhs),rhsMax =   1.69833468608069E-03  1.30724241331895E-02
 cg2d: Sum(rhs),rhsMax =   1.69853702656863E-03  1.30723573047767E-02
 cg2d: Sum(rhs),rhsMax =   1.69873917368915E-03  1.30722904833052E-02
 cg2d: Sum(rhs),rhsMax =   1.69894103464070E-03  1.30722236715213E-02
 cg2d: Sum(rhs),rhsMax =   1.69914268774841E-03  1.30721568715590E-02
 cg2d: Sum(rhs),rhsMax =   1.69934408827023E-03  1.30720900827874E-02
 cg2d: Sum(rhs),rhsMax =   1.69954528457839E-03  1.30720233018692E-02
 cg2d: Sum(rhs),rhsMax =   1.69974623266222E-03  1.30719565327085E-02
 cg2d: Sum(rhs),rhsMax =   1.69994694043680E-03  1.30718897747517E-02
 cg2d: Sum(rhs),rhsMax =   1.70014738884066E-03  1.30718230287956E-02
 cg2d: Sum(rhs),rhsMax =   1.70034763981532E-03  1.30717562928067E-02
 cg2d: Sum(rhs),rhsMax =   1.70054750449406E-03  1.30716895696812E-02
 cg2d: Sum(rhs),rhsMax =   1.70074722443366E-03  1.30716228597379E-02
 cg2d: Sum(rhs),rhsMax =   1.70094669794196E-03  1.30715561615898E-02
 cg2d: Sum(rhs),rhsMax =   1.70114600214160E-03  1.30714894750990E-02
 cg2d: Sum(rhs),rhsMax =   1.70134500984739E-03  1.30714228014377E-02
 cg2d: Sum(rhs),rhsMax =   1.70154379958749E-03  1.30713561414364E-02
 cg2d: Sum(rhs),rhsMax =   1.70174232942150E-03  1.30712894941082E-02
 cg2d: Sum(rhs),rhsMax =   1.70194064220474E-03  1.30712228608927E-02
 cg2d: Sum(rhs),rhsMax =   1.70213866342447E-03  1.30711562424498E-02
 cg2d: Sum(rhs),rhsMax =   1.70233645709574E-03  1.30710896381964E-02
 cg2d: Sum(rhs),rhsMax =   1.70253394153144E-03  1.30710230477273E-02
 cg2d: Sum(rhs),rhsMax =   1.70273124466493E-03  1.30709564729512E-02
 cg2d: Sum(rhs),rhsMax =   1.70292830985243E-03  1.30708899111127E-02
 cg2d: Sum(rhs),rhsMax =   1.70312515270566E-03  1.30708233673987E-02
 cg2d: Sum(rhs),rhsMax =   1.70332172973352E-03  1.30707568371837E-02
 cg2d: Sum(rhs),rhsMax =   1.70351807239387E-03  1.30706903247285E-02
 cg2d: Sum(rhs),rhsMax =   1.70371415852162E-03  1.30706238266319E-02
 cg2d: Sum(rhs),rhsMax =   1.70390995208581E-03  1.30705573466443E-02
 cg2d: Sum(rhs),rhsMax =   1.70410555030593E-03  1.30704908816618E-02
 cg2d: Sum(rhs),rhsMax =   1.70430089334655E-03  1.30704244353306E-02
 cg2d: Sum(rhs),rhsMax =   1.70449599185383E-03  1.30703580044101E-02
 cg2d: Sum(rhs),rhsMax =   1.70469084483851E-03  1.30702915935082E-02
 cg2d: Sum(rhs),rhsMax =   1.70488547037886E-03  1.30702251972421E-02
 cg2d: Sum(rhs),rhsMax =   1.70507972000183E-03  1.30701588231732E-02
 cg2d: Sum(rhs),rhsMax =   1.70527383585276E-03  1.30700924622104E-02
 cg2d: Sum(rhs),rhsMax =   1.70546767878044E-03  1.30700261238954E-02
 cg2d: Sum(rhs),rhsMax =   1.70566124278085E-03  1.30699598029353E-02
 cg2d: Sum(rhs),rhsMax =   1.70585455980105E-03  1.30698935020389E-02
 cg2d: Sum(rhs),rhsMax =   1.70604765527408E-03  1.30698272178792E-02
 cg2d: Sum(rhs),rhsMax =   1.70624053165902E-03  1.30697609559801E-02
 cg2d: Sum(rhs),rhsMax =   1.70643312905587E-03  1.30696947118400E-02
 cg2d: Sum(rhs),rhsMax =   1.70662547324167E-03  1.30696284908608E-02
 cg2d: Sum(rhs),rhsMax =   1.70681758769145E-03  1.30695622881476E-02
 cg2d: Sum(rhs),rhsMax =   1.70700945634294E-03  1.30694961079702E-02
 cg2d: Sum(rhs),rhsMax =   1.70720101076131E-03  1.30694299475609E-02
 cg2d: Sum(rhs),rhsMax =   1.70739236130564E-03  1.30693638082860E-02
(PID.TID 0000.0001)      cg2d_init_res =   1.99945006990892E-03
(PID.TID 0000.0001)      cg2d_iters(min,last) =      -1     366
(PID.TID 0000.0001)      cg2d_last_res =   8.93699065024356E-08
(PID.TID 0000.0001) // =======================================================
(PID.TID 0000.0001) // Begin MONITOR dynamic field statistics
(PID.TID 0000.0001) // =======================================================
(PID.TID 0000.0001) %MON time_tsnumber                =                 15048
(PID.TID 0000.0001) %MON time_secondsf                =   1.8057600000000E+07
(PID.TID 0000.0001) %MON dynstat_eta_max              =   1.2740098186034E-01
(PID.TID 0000.0001) %MON dynstat_eta_min              =  -3.1758476163665E-01
(PID.TID 0000.0001) %MON dynstat_eta_mean             =  -1.0620142399380E-07
(PID.TID 0000.0001) %MON dynstat_eta_sd               =   1.1355494164854E-01
(PID.TID 0000.0001) %MON dynstat_eta_del2             =   6.8781274831397E-07
(PID.TID 0000.0001) %MON dynstat_uvel_max             =   1.2149206532272E-01
(PID.TID 0000.0001) %MON dynstat_uvel_min             =  -1.2568068287260E-01
(PID.TID 0000.0001) %MON dynstat_uvel_mean            =  -3.9535635955849E-08
(PID.TID 0000.0001) %MON dynstat_uvel_sd              =   4.7507362388466E-02
(PID.TID 0000.0001) %MON dynstat_uvel_del2            =   1.0410655918862E-06
(PID.TID 0000.0001) %MON dynstat_vvel_max             =   1.4053078528749E-01
(PID.TID 0000.0001) %MON dynstat_vvel_min             =  -1.1422457103558E-01
(PID.TID 0000.0001) %MON dynstat_vvel_mean            =  -1.3936888591969E-08
(PID.TID 0000.0001) %MON dynstat_vvel_sd              =   4.4448703556820E-02
(PID.TID 0000.0001) %MON dynstat_vvel_del2            =   1.2780981876837E-06
(PID.TID 0000.0001) %MON dynstat_wvel_max             =   6.0981888393871E-09
(PID.TID 0000.0001) %MON dynstat_wvel_min             =  -8.4716740949079E-09
(PID.TID 0000.0001) %MON dynstat_wvel_mean            =   6.9300230962781E-21
(PID.TID 0000.0001) %MON dynstat_wvel_sd              =   3.0055521788813E-09
(PID.TID 0000.0001) %MON dynstat_wvel_del2            =   3.1443176606454E-14
(PID.TID 0000.0001) %MON dynstat_theta_max            =   2.0000000000000E+01
(PID.TID 0000.0001) %MON dynstat_theta_min            =   2.0000000000000E+01
(PID.TID 0000.0001) %MON dynstat_theta_mean           =   1.9999999999999E+01
(PID.TID 0000.0001) %MON dynstat_theta_sd             =   1.1972645097557E-12
(PID.TID 0000.0001) %MON dynstat_theta_del2           =   0.0000000000000E+00
(PID.TID 0000.0001) %MON dynstat_salt_max             =   3.0000000000000E+01
(PID.TID 0000.0001) %MON dynstat_salt_min             =   3.0000000000000E+01
(PID.TID 0000.0001) %MON dynstat_salt_mean            =   2.9999999999998E+01
(PID.TID 0000.0001) %MON dynstat_salt_sd              =   2.1529444893531E-12
(PID.TID 0000.0001) %MON dynstat_salt_del2            =   0.0000000000000E+00
(PID.TID 0000.0001) %MON trAdv_CFL_u_max              =   3.0162788598289E-02
(PID.TID 0000.0001) %MON trAdv_CFL_v_max              =   3.3725820730833E-02
(PID.TID 0000.0001) %MON trAdv_CFL_w_max              =   1.5728266681546E-09
(PID.TID 0000.0001) %MON advcfl_uvel_max              =   3.0163363889425E-02
(PID.TID 0000.0001) %MON advcfl_vvel_max              =   3.3727388468997E-02
(PID.TID 0000.0001) %MON advcfl_wvel_max              =   4.0664035655558E-09
(PID.TID 0000.0001) %MON advcfl_W_hf_max              =   0.0000000000000E+00
(PID.TID 0000.0001) %MON pe_b_mean                    =   1.3193069605746E-05
(PID.TID 0000.0001) %MON ke_max                       =   9.9148579666596E-03
(PID.TID 0000.0001) %MON ke_mean                      =   2.1067920101291E-03
(PID.TID 0000.0001) %MON ke_vol                       =   7.2529629296391E+15
(PID.TID 0000.0001) %MON vort_r_min                   =  -4.1615518938733E-06
(PID.TID 0000.0001) %MON vort_r_max                   =   3.3637906267550E-06
(PID.TID 0000.0001) %MON vort_a_mean                  =   1.0615000000000E-04
(PID.TID 0000.0001) %MON vort_a_sd                    =   3.6341006562721E-06
(PID.TID 0000.0001) %MON vort_p_mean                  =   1.1210870169429E-04
(PID.TID 0000.0001) %MON vort_p_sd                    =   2.1067771683771E-05
(PID.TID 0000.0001) %MON surfExpan_theta_mean         =   1.3859824342037E-19
(PID.TID 0000.0001) %MON surfExpan_salt_mean          =   2.0788608164240E-19
(PID.TID 0000.0001) // =======================================================
(PID.TID 0000.0001) // End MONITOR dynamic field statistics
(PID.TID 0000.0001) // =======================================================
 cg2d: Sum(rhs),rhsMax =   1.70758348460069E-03  1.30692976899016E-02
 cg2d: Sum(rhs),rhsMax =   1.70777430685347E-03  1.30692315955704E-02
 cg2d: Sum(rhs),rhsMax =   1.70796490513728E-03  1.30691655212704E-02
 cg2d: Sum(rhs),rhsMax =   1.70815512367734E-03  1.30690994736797E-02
 cg2d: Sum(rhs),rhsMax =   1.70834516737145E-03  1.30690334422593E-02
 cg2d: Sum(rhs),rhsMax =   1.70853496655267E-03  1.30689674397750E-02
 cg2d: Sum(rhs),rhsMax =   1.70872453675171E-03  1.30689014545784E-02
 cg2d: Sum(rhs),rhsMax =   1.70891384499084E-03  1.30688354985895E-02
 cg2d: Sum(rhs),rhsMax =   1.70910292467523E-03  1.30687695614998E-02
 cg2d: Sum(rhs),rhsMax =   1.70929170430772E-03  1.30687036529817E-02
 cg2d: Sum(rhs),rhsMax =   1.70948024432990E-03  1.30686377652390E-02
 cg2d: Sum(rhs),rhsMax =   1.70966848729744E-03  1.30685719049354E-02
 cg2d: Sum(rhs),rhsMax =   1.70985651161468E-03  1.30685060655468E-02
 cg2d: Sum(rhs),rhsMax =   1.71004425382282E-03  1.30684402576858E-02
 cg2d: Sum(rhs),rhsMax =   1.71023179439444E-03  1.30683744690146E-02
 cg2d: Sum(rhs),rhsMax =   1.71041900451167E-03  1.30683087109089E-02
 cg2d: Sum(rhs),rhsMax =   1.71060597246949E-03  1.30682429740817E-02
 cg2d: Sum(rhs),rhsMax =   1.71079268630460E-03  1.30681772682106E-02
 cg2d: Sum(rhs),rhsMax =   1.71097916712468E-03  1.30681115853285E-02
 cg2d: Sum(rhs),rhsMax =   1.71116537482706E-03  1.30680459330792E-02
 cg2d: Sum(rhs),rhsMax =   1.71135135477789E-03  1.30679803029113E-02
 cg2d: Sum(rhs),rhsMax =   1.71153703885477E-03  1.30679147055404E-02
 cg2d: Sum(rhs),rhsMax =   1.71172248423470E-03  1.30678491305915E-02
 cg2d: Sum(rhs),rhsMax =   1.71190761453782E-03  1.30677835876345E-02
 cg2d: Sum(rhs),rhsMax =   1.71209251290563E-03  1.30677180700388E-02
 cg2d: Sum(rhs),rhsMax =   1.71227713661818E-03  1.30676525853043E-02
 cg2d: Sum(rhs),rhsMax =   1.71246152567080E-03  1.30675871221280E-02
 cg2d: Sum(rhs),rhsMax =   1.71264564923080E-03  1.30675216948027E-02
 cg2d: Sum(rhs),rhsMax =   1.71282953852552E-03  1.30674562925276E-02
 cg2d: Sum(rhs),rhsMax =   1.71301313430456E-03  1.30673909244306E-02
 cg2d: Sum(rhs),rhsMax =   1.71319644236692E-03  1.30673255809156E-02
 cg2d: Sum(rhs),rhsMax =   1.71337952174147E-03  1.30672602722014E-02
 cg2d: Sum(rhs),rhsMax =   1.71356232974192E-03  1.30671949885264E-02
 cg2d: Sum(rhs),rhsMax =   1.71374484188881E-03  1.30671297413323E-02
 cg2d: Sum(rhs),rhsMax =   1.71392711818482E-03  1.30670645201854E-02
 cg2d: Sum(rhs),rhsMax =   1.71410911808930E-03  1.30669993352131E-02
 cg2d: Sum(rhs),rhsMax =   1.71429087495832E-03  1.30669341772782E-02
 cg2d: Sum(rhs),rhsMax =   1.71447237268764E-03  1.30668690576045E-02
 cg2d: Sum(rhs),rhsMax =   1.71465360579134E-03  1.30668039624422E-02
 cg2d: Sum(rhs),rhsMax =   1.71483453255991E-03  1.30667389050248E-02
 cg2d: Sum(rhs),rhsMax =   1.71501522712139E-03  1.30666738762679E-02
 cg2d: Sum(rhs),rhsMax =   1.71519562842413E-03  1.30666088854199E-02
 cg2d: Sum(rhs),rhsMax =   1.71537579019935E-03  1.30665439222596E-02
 cg2d: Sum(rhs),rhsMax =   1.71555568825120E-03  1.30664789971888E-02
 cg2d: Sum(rhs),rhsMax =   1.71573528702188E-03  1.30664141011337E-02
 cg2d: Sum(rhs),rhsMax =   1.71591465111025E-03  1.30663492446456E-02
 cg2d: Sum(rhs),rhsMax =   1.71609375405786E-03  1.30662844174812E-02
 cg2d: Sum(rhs),rhsMax =   1.71627260252498E-03  1.30662196299578E-02
 cg2d: Sum(rhs),rhsMax =   1.71645110692512E-03  1.30661548726079E-02
 cg2d: Sum(rhs),rhsMax =   1.71662941250027E-03  1.30660901550933E-02
 cg2d: Sum(rhs),rhsMax =   1.71680728604498E-03  1.30660254707535E-02
 cg2d: Sum(rhs),rhsMax =   1.71698496979992E-03  1.30659608227090E-02
 cg2d: Sum(rhs),rhsMax =   1.71716241512861E-03  1.30658962081828E-02
 cg2d: Sum(rhs),rhsMax =   1.71733960831671E-03  1.30658316328724E-02
 cg2d: Sum(rhs),rhsMax =   1.71751654717747E-03  1.30657670926859E-02
 cg2d: Sum(rhs),rhsMax =   1.71769315027108E-03  1.30657025929258E-02
 cg2d: Sum(rhs),rhsMax =   1.71786953359113E-03  1.30656381257689E-02
 cg2d: Sum(rhs),rhsMax =   1.71804560753389E-03  1.30655736986314E-02
 cg2d: Sum(rhs),rhsMax =   1.71822146217623E-03  1.30655093066201E-02
 cg2d: Sum(rhs),rhsMax =   1.71839699792537E-03  1.30654449556351E-02
 cg2d: Sum(rhs),rhsMax =   1.71857229243962E-03  1.30653806407481E-02
 cg2d: Sum(rhs),rhsMax =   1.71876962689493E-03  1.30653163663259E-02
 cg2d: Sum(rhs),rhsMax =   1.71896662250428E-03  1.30652521284847E-02
 cg2d: Sum(rhs),rhsMax =   1.71916335354487E-03  1.30651879335841E-02
 cg2d: Sum(rhs),rhsMax =   1.71935975583340E-03  1.30651237753593E-02
 cg2d: Sum(rhs),rhsMax =   1.71955586443661E-03  1.30650596580062E-02
 cg2d: Sum(rhs),rhsMax =   1.71975157803140E-03  1.30649955813801E-02
 cg2d: Sum(rhs),rhsMax =   1.71994700058086E-03  1.30649315440335E-02
 cg2d: Sum(rhs),rhsMax =   1.72014208004392E-03  1.30648675452254E-02
 cg2d: Sum(rhs),rhsMax =   1.72033688316978E-03  1.30648035888583E-02
 cg2d: Sum(rhs),rhsMax =   1.72053135136293E-03  1.30647396726620E-02
 cg2d: Sum(rhs),rhsMax =   1.72072548399393E-03  1.30646758000642E-02
(PID.TID 0000.0001)      cg2d_init_res =   1.98921558479819E-03
(PID.TID 0000.0001)      cg2d_iters(min,last) =      -1     365
(PID.TID 0000.0001)      cg2d_last_res =   9.90439855857630E-08
(PID.TID 0000.0001) // =======================================================
(PID.TID 0000.0001) // Begin MONITOR dynamic field statistics
(PID.TID 0000.0001) // =======================================================
(PID.TID 0000.0001) %MON time_tsnumber                =                 15120
(PID.TID 0000.0001) %MON time_secondsf                =   1.8144000000000E+07
(PID.TID 0000.0001) %MON dynstat_eta_max              =   1.2756313084581E-01
(PID.TID 0000.0001) %MON dynstat_eta_min              =  -3.1829646402729E-01
(PID.TID 0000.0001) %MON dynstat_eta_mean             =  -1.0699245828221E-07
(PID.TID 0000.0001) %MON dynstat_eta_sd               =   1.1373878782813E-01
(PID.TID 0000.0001) %MON dynstat_eta_del2             =   6.8890736304704E-07
(PID.TID 0000.0001) %MON dynstat_uvel_max             =   1.2175659066857E-01
(PID.TID 0000.0001) %MON dynstat_uvel_min             =  -1.2585397120000E-01
(PID.TID 0000.0001) %MON dynstat_uvel_mean            =  -3.5632553441857E-08
(PID.TID 0000.0001) %MON dynstat_uvel_sd              =   4.7590277264096E-02
(PID.TID 0000.0001) %MON dynstat_uvel_del2            =   1.0423378218041E-06
(PID.TID 0000.0001) %MON dynstat_vvel_max             =   1.4100386207488E-01
(PID.TID 0000.0001) %MON dynstat_vvel_min             =  -1.1445508372886E-01
(PID.TID 0000.0001) %MON dynstat_vvel_mean            =  -7.3789829752383E-09
(PID.TID 0000.0001) %MON dynstat_vvel_sd              =   4.4540610942631E-02
(PID.TID 0000.0001) %MON dynstat_vvel_del2            =   1.2778565817247E-06
(PID.TID 0000.0001) %MON dynstat_wvel_max             =   5.8010038314387E-09
(PID.TID 0000.0001) %MON dynstat_wvel_min             =  -8.3065636688843E-09
(PID.TID 0000.0001) %MON dynstat_wvel_mean            =  -5.9660771784571E-21
(PID.TID 0000.0001) %MON dynstat_wvel_sd              =   2.9991698174264E-09
(PID.TID 0000.0001) %MON dynstat_wvel_del2            =   3.1705939734109E-14
(PID.TID 0000.0001) %MON dynstat_theta_max            =   2.0000000000000E+01
(PID.TID 0000.0001) %MON dynstat_theta_min            =   2.0000000000000E+01
(PID.TID 0000.0001) %MON dynstat_theta_mean           =   1.9999999999999E+01
(PID.TID 0000.0001) %MON dynstat_theta_sd             =   1.1972645097557E-12
(PID.TID 0000.0001) %MON dynstat_theta_del2           =   0.0000000000000E+00
(PID.TID 0000.0001) %MON dynstat_salt_max             =   3.0000000000000E+01
(PID.TID 0000.0001) %MON dynstat_salt_min             =   3.0000000000000E+01
(PID.TID 0000.0001) %MON dynstat_salt_mean            =   2.9999999999998E+01
(PID.TID 0000.0001) %MON dynstat_salt_sd              =   2.1529444893531E-12
(PID.TID 0000.0001) %MON dynstat_salt_del2            =   0.0000000000000E+00
(PID.TID 0000.0001) %MON trAdv_CFL_u_max              =   3.0204362263051E-02
(PID.TID 0000.0001) %MON trAdv_CFL_v_max              =   3.3839341882100E-02
(PID.TID 0000.0001) %MON trAdv_CFL_w_max              =   1.4943018924136E-09
(PID.TID 0000.0001) %MON advcfl_uvel_max              =   3.0204953088001E-02
(PID.TID 0000.0001) %MON advcfl_vvel_max              =   3.3840926897972E-02
(PID.TID 0000.0001) %MON advcfl_wvel_max              =   3.9871505610645E-09
(PID.TID 0000.0001) %MON advcfl_W_hf_max              =   0.0000000000000E+00
(PID.TID 0000.0001) %MON pe_b_mean                    =   1.3235823515970E-05
(PID.TID 0000.0001) %MON ke_max                       =   9.9809550307624E-03
(PID.TID 0000.0001) %MON ke_mean                      =   2.1147877476384E-03
(PID.TID 0000.0001) %MON ke_vol                       =   7.2529629296391E+15
(PID.TID 0000.0001) %MON vort_r_min                   =  -4.1599688713465E-06
(PID.TID 0000.0001) %MON vort_r_max                   =   3.3636075687357E-06
(PID.TID 0000.0001) %MON vort_a_mean                  =   1.0615000000000E-04
(PID.TID 0000.0001) %MON vort_a_sd                    =   3.6343203110951E-06
(PID.TID 0000.0001) %MON vort_p_mean                  =   1.1210870169429E-04
(PID.TID 0000.0001) %MON vort_p_sd                    =   2.1067846843821E-05
(PID.TID 0000.0001) %MON surfExpan_theta_mean         =  -1.1935948047388E-19
(PID.TID 0000.0001) %MON surfExpan_salt_mean          =  -1.7903883089625E-19
(PID.TID 0000.0001) // =======================================================
(PID.TID 0000.0001) // End MONITOR dynamic field statistics
(PID.TID 0000.0001) // =======================================================
 cg2d: Sum(rhs),rhsMax =   1.72091929433728E-03  1.30646119672255E-02
 cg2d: Sum(rhs),rhsMax =   1.72111277231533E-03  1.30645481790356E-02
 cg2d: Sum(rhs),rhsMax =   1.72130581110345E-03  1.30644844286611E-02
 cg2d: Sum(rhs),rhsMax =   1.72149863818632E-03  1.30644207269174E-02
 cg2d: Sum(rhs),rhsMax =   1.72169108278279E-03  1.30643570648095E-02
 cg2d: Sum(rhs),rhsMax =   1.72188325069971E-03  1.30642934467894E-02
 cg2d: Sum(rhs),rhsMax =   1.72207505891169E-03  1.30642298704559E-02
 cg2d: Sum(rhs),rhsMax =   1.72226658330979E-03  1.30641663399653E-02
 cg2d: Sum(rhs),rhsMax =   1.72245771007881E-03  1.30641028517039E-02
 cg2d: Sum(rhs),rhsMax =   1.72264855267465E-03  1.30640394091365E-02
 cg2d: Sum(rhs),rhsMax =   1.72283905825922E-03  1.30639760102763E-02
 cg2d: Sum(rhs),rhsMax =   1.72302916550224E-03  1.30639126564534E-02
 cg2d: Sum(rhs),rhsMax =   1.72321897877413E-03  1.30638493466140E-02
 cg2d: Sum(rhs),rhsMax =   1.72340839307170E-03  1.30637860829547E-02
 cg2d: Sum(rhs),rhsMax =   1.72359752632896E-03  1.30637228641654E-02
 cg2d: Sum(rhs),rhsMax =   1.72378625076185E-03  1.30636596939202E-02
 cg2d: Sum(rhs),rhsMax =   1.72397475295996E-03  1.30635965670547E-02
 cg2d: Sum(rhs),rhsMax =   1.72416285771686E-03  1.30635334886937E-02
 cg2d: Sum(rhs),rhsMax =   1.72435066187514E-03  1.30634704554138E-02
 cg2d: Sum(rhs),rhsMax =   1.72453813781075E-03  1.30634074730536E-02
 cg2d: Sum(rhs),rhsMax =   1.72472526773403E-03  1.30633445346268E-02
 cg2d: Sum(rhs),rhsMax =   1.72491205950710E-03  1.30632816451539E-02
 cg2d: Sum(rhs),rhsMax =   1.72509850758826E-03  1.30632188021030E-02
 cg2d: Sum(rhs),rhsMax =   1.72528463609637E-03  1.30631560096547E-02
 cg2d: Sum(rhs),rhsMax =   1.72547038187606E-03  1.30630932643697E-02
 cg2d: Sum(rhs),rhsMax =   1.72565583091962E-03  1.30630305680523E-02
 cg2d: Sum(rhs),rhsMax =   1.72584091160729E-03  1.30629679196080E-02
 cg2d: Sum(rhs),rhsMax =   1.72602565110270E-03  1.30629053226652E-02
 cg2d: Sum(rhs),rhsMax =   1.72621006507103E-03  1.30628427743348E-02
 cg2d: Sum(rhs),rhsMax =   1.72639412055472E-03  1.30627802758923E-02
 cg2d: Sum(rhs),rhsMax =   1.72657781365510E-03  1.30627178266175E-02
 cg2d: Sum(rhs),rhsMax =   1.72676119005081E-03  1.30626554300104E-02
 cg2d: Sum(rhs),rhsMax =   1.72694423589172E-03  1.30625930836176E-02
 cg2d: Sum(rhs),rhsMax =   1.72712693478326E-03  1.30625307879184E-02
 cg2d: Sum(rhs),rhsMax =   1.72730928706707E-03  1.30624685432967E-02
 cg2d: Sum(rhs),rhsMax =   1.72749129632304E-03  1.30624063511385E-02
 cg2d: Sum(rhs),rhsMax =   1.72767295623563E-03  1.30623442111883E-02
 cg2d: Sum(rhs),rhsMax =   1.72785426173184E-03  1.30622821225216E-02
 cg2d: Sum(rhs),rhsMax =   1.72803525940338E-03  1.30622200864275E-02
 cg2d: Sum(rhs),rhsMax =   1.72821587375389E-03  1.30621581035863E-02
 cg2d: Sum(rhs),rhsMax =   1.72839618637735E-03  1.30620961740162E-02
 cg2d: Sum(rhs),rhsMax =   1.72857609446423E-03  1.30620342967286E-02
 cg2d: Sum(rhs),rhsMax =   1.72875566356580E-03  1.30619724727746E-02
 cg2d: Sum(rhs),rhsMax =   1.72893489178330E-03  1.30619107038808E-02
 cg2d: Sum(rhs),rhsMax =   1.72911382535262E-03  1.30618489892740E-02
 cg2d: Sum(rhs),rhsMax =   1.72929236006351E-03  1.30617873293872E-02
 cg2d: Sum(rhs),rhsMax =   1.72947059645284E-03  1.30617257226491E-02
 cg2d: Sum(rhs),rhsMax =   1.72964846128807E-03  1.30616641733465E-02
 cg2d: Sum(rhs),rhsMax =   1.72982596273167E-03  1.30616026781887E-02
 cg2d: Sum(rhs),rhsMax =   1.73000312143434E-03  1.30615412399105E-02
 cg2d: Sum(rhs),rhsMax =   1.73017998323703E-03  1.30614798562849E-02
 cg2d: Sum(rhs),rhsMax =   1.73040930860357E-03  1.30614185445373E-02
 cg2d: Sum(rhs),rhsMax =   1.73063816325789E-03  1.30613572739259E-02
 cg2d: Sum(rhs),rhsMax =   1.73086647009927E-03  1.30612960611873E-02
 cg2d: Sum(rhs),rhsMax =   1.73109425903849E-03  1.30612349036984E-02
 cg2d: Sum(rhs),rhsMax =   1.73132150767214E-03  1.30611738051473E-02
 cg2d: Sum(rhs),rhsMax =   1.73154822711856E-03  1.30611127621655E-02
 cg2d: Sum(rhs),rhsMax =   1.73177438562776E-03  1.30610517795679E-02
 cg2d: Sum(rhs),rhsMax =   1.73199996988503E-03  1.30609908511222E-02
 cg2d: Sum(rhs),rhsMax =   1.73222509605219E-03  1.30609299848934E-02
 cg2d: Sum(rhs),rhsMax =   1.73244967091799E-03  1.30608691756224E-02
 cg2d: Sum(rhs),rhsMax =   1.73267372680043E-03  1.30608084256984E-02
 cg2d: Sum(rhs),rhsMax =   1.73289731612066E-03  1.30607477361562E-02
 cg2d: Sum(rhs),rhsMax =   1.73312035194254E-03  1.30606871091000E-02
 cg2d: Sum(rhs),rhsMax =   1.73334288807060E-03  1.30606265383351E-02
 cg2d: Sum(rhs),rhsMax =   1.73356486853717E-03  1.30605660297395E-02
 cg2d: Sum(rhs),rhsMax =   1.73378634340227E-03  1.30605055780511E-02
 cg2d: Sum(rhs),rhsMax =   1.73400724631998E-03  1.30604451895987E-02
 cg2d: Sum(rhs),rhsMax =   1.73422762230396E-03  1.30603848598229E-02
 cg2d: Sum(rhs),rhsMax =   1.73444749088402E-03  1.30603245928953E-02
 cg2d: Sum(rhs),rhsMax =   1.73466684056547E-03  1.30602643866672E-02
 cg2d: Sum(rhs),rhsMax =   1.73488567866683E-03  1.30602042443986E-02
(PID.TID 0000.0001)      cg2d_init_res =   1.98155674642471E-03
(PID.TID 0000.0001)      cg2d_iters(min,last) =      -1     363
(PID.TID 0000.0001)      cg2d_last_res =   9.68225721755014E-08
(PID.TID 0000.0001) // =======================================================
(PID.TID 0000.0001) // Begin MONITOR dynamic field statistics
(PID.TID 0000.0001) // =======================================================
(PID.TID 0000.0001) %MON time_tsnumber                =                 15192
(PID.TID 0000.0001) %MON time_secondsf                =   1.8230400000000E+07
(PID.TID 0000.0001) %MON dynstat_eta_max              =   1.2772845029145E-01
(PID.TID 0000.0001) %MON dynstat_eta_min              =  -3.1899587095895E-01
(PID.TID 0000.0001) %MON dynstat_eta_mean             =  -1.0783745174363E-07
(PID.TID 0000.0001) %MON dynstat_eta_sd               =   1.1392065441123E-01
(PID.TID 0000.0001) %MON dynstat_eta_del2             =   6.8999082158376E-07
(PID.TID 0000.0001) %MON dynstat_uvel_max             =   1.2198882666054E-01
(PID.TID 0000.0001) %MON dynstat_uvel_min             =  -1.2603043614345E-01
(PID.TID 0000.0001) %MON dynstat_uvel_mean            =  -2.9479822327429E-08
(PID.TID 0000.0001) %MON dynstat_uvel_sd              =   4.7667752855164E-02
(PID.TID 0000.0001) %MON dynstat_uvel_del2            =   1.0435690080141E-06
(PID.TID 0000.0001) %MON dynstat_vvel_max             =   1.4148129378563E-01
(PID.TID 0000.0001) %MON dynstat_vvel_min             =  -1.1468018459684E-01
(PID.TID 0000.0001) %MON dynstat_vvel_mean            =  -1.7500699181648E-09
(PID.TID 0000.0001) %MON dynstat_vvel_sd              =   4.4636360533038E-02
(PID.TID 0000.0001) %MON dynstat_vvel_del2            =   1.2776979793858E-06
(PID.TID 0000.0001) %MON dynstat_wvel_max             =   5.4656825540587E-09
(PID.TID 0000.0001) %MON dynstat_wvel_min             =  -8.1166350701824E-09
(PID.TID 0000.0001) %MON dynstat_wvel_mean            =   3.8774654359878E-21
(PID.TID 0000.0001) %MON dynstat_wvel_sd              =   2.9873043125392E-09
(PID.TID 0000.0001) %MON dynstat_wvel_del2            =   3.1552436359224E-14
(PID.TID 0000.0001) %MON dynstat_theta_max            =   2.0000000000000E+01
(PID.TID 0000.0001) %MON dynstat_theta_min            =   2.0000000000000E+01
(PID.TID 0000.0001) %MON dynstat_theta_mean           =   1.9999999999999E+01
(PID.TID 0000.0001) %MON dynstat_theta_sd             =   1.1972645097557E-12
(PID.TID 0000.0001) %MON dynstat_theta_del2           =   0.0000000000000E+00
(PID.TID 0000.0001) %MON dynstat_salt_max             =   3.0000000000000E+01
(PID.TID 0000.0001) %MON dynstat_salt_min             =   3.0000000000000E+01
(PID.TID 0000.0001) %MON dynstat_salt_mean            =   2.9999999999998E+01
(PID.TID 0000.0001) %MON dynstat_salt_sd              =   2.1529444893531E-12
(PID.TID 0000.0001) %MON dynstat_salt_del2            =   0.0000000000000E+00
(PID.TID 0000.0001) %MON trAdv_CFL_u_max              =   3.0246718739142E-02
(PID.TID 0000.0001) %MON trAdv_CFL_v_max              =   3.3953913821237E-02
(PID.TID 0000.0001) %MON trAdv_CFL_w_max              =   1.4051573091947E-09
(PID.TID 0000.0001) %MON advcfl_uvel_max              =   3.0247304674428E-02
(PID.TID 0000.0001) %MON advcfl_vvel_max              =   3.3955510508552E-02
(PID.TID 0000.0001) %MON advcfl_wvel_max              =   3.8959848336875E-09
(PID.TID 0000.0001) %MON advcfl_W_hf_max              =   0.0000000000000E+00
(PID.TID 0000.0001) %MON pe_b_mean                    =   1.3278185115642E-05
(PID.TID 0000.0001) %MON ke_max                       =   1.0048248355527E-02
(PID.TID 0000.0001) %MON ke_mean                      =   2.1227113346207E-03
(PID.TID 0000.0001) %MON ke_vol                       =   7.2529629296391E+15
(PID.TID 0000.0001) %MON vort_r_min                   =  -4.1584335353213E-06
(PID.TID 0000.0001) %MON vort_r_max                   =   3.3635153452035E-06
(PID.TID 0000.0001) %MON vort_a_mean                  =   1.0615000000000E-04
(PID.TID 0000.0001) %MON vort_a_sd                    =   3.6345365793461E-06
(PID.TID 0000.0001) %MON vort_p_mean                  =   1.1210870169429E-04
(PID.TID 0000.0001) %MON vort_p_sd                    =   2.1067924709042E-05
(PID.TID 0000.0001) %MON surfExpan_theta_mean         =   7.7546170364880E-20
(PID.TID 0000.0001) %MON surfExpan_salt_mean          =   1.1632779389548E-19
(PID.TID 0000.0001) // =======================================================
(PID.TID 0000.0001) // End MONITOR dynamic field statistics
(PID.TID 0000.0001) // =======================================================
 cg2d: Sum(rhs),rhsMax =   1.73510394928559E-03  1.30601441627051E-02
 cg2d: Sum(rhs),rhsMax =   1.73532174759242E-03  1.30600841444872E-02
 cg2d: Sum(rhs),rhsMax =   1.73553899287911E-03  1.30600241876264E-02
 cg2d: Sum(rhs),rhsMax =   1.73575579655005E-03  1.30599642958594E-02
 cg2d: Sum(rhs),rhsMax =   1.73597203253989E-03  1.30599044671507E-02
 cg2d: Sum(rhs),rhsMax =   1.73618766336154E-03  1.30598446987683E-02
 cg2d: Sum(rhs),rhsMax =   1.73640286588140E-03  1.30597849992179E-02
 cg2d: Sum(rhs),rhsMax =   1.73661750858601E-03  1.30597253649427E-02
 cg2d: Sum(rhs),rhsMax =   1.73683168336054E-03  1.30596657942836E-02
 cg2d: Sum(rhs),rhsMax =   1.73704533871510E-03  1.30596062872299E-02
 cg2d: Sum(rhs),rhsMax =   1.73725848961141E-03  1.30595468440812E-02
 cg2d: Sum(rhs),rhsMax =   1.73747112696601E-03  1.30594874656179E-02
 cg2d: Sum(rhs),rhsMax =   1.73768316712850E-03  1.30594281533971E-02
 cg2d: Sum(rhs),rhsMax =   1.73789476677671E-03  1.30593689060271E-02
 cg2d: Sum(rhs),rhsMax =   1.73810582141326E-03  1.30593097230963E-02
 cg2d: Sum(rhs),rhsMax =   1.73831638696682E-03  1.30592506085233E-02
 cg2d: Sum(rhs),rhsMax =   1.73852645712627E-03  1.30591915604004E-02
 cg2d: Sum(rhs),rhsMax =   1.73873601677088E-03  1.30591325807949E-02
 cg2d: Sum(rhs),rhsMax =   1.73894508520987E-03  1.30590736672779E-02
 cg2d: Sum(rhs),rhsMax =   1.73915363481381E-03  1.30590148232623E-02
 cg2d: Sum(rhs),rhsMax =   1.73936165159693E-03  1.30589560437650E-02
 cg2d: Sum(rhs),rhsMax =   1.73956916374080E-03  1.30588973375519E-02
 cg2d: Sum(rhs),rhsMax =   1.73977613558920E-03  1.30588387013676E-02
 cg2d: Sum(rhs),rhsMax =   1.73998264744435E-03  1.30587801268249E-02
 cg2d: Sum(rhs),rhsMax =   1.74018865519588E-03  1.30587216209903E-02
 cg2d: Sum(rhs),rhsMax =   1.74049818773861E-03  1.30586631781717E-02
 cg2d: Sum(rhs),rhsMax =   1.74080677579492E-03  1.30586048113589E-02
 cg2d: Sum(rhs),rhsMax =   1.74111439878901E-03  1.30585465205147E-02
 cg2d: Sum(rhs),rhsMax =   1.74142108598410E-03  1.30584883006162E-02
 cg2d: Sum(rhs),rhsMax =   1.74172683572254E-03  1.30584301466195E-02
 cg2d: Sum(rhs),rhsMax =   1.74203170248432E-03  1.30583720612859E-02
 cg2d: Sum(rhs),rhsMax =   1.74233563809627E-03  1.30583140490416E-02
 cg2d: Sum(rhs),rhsMax =   1.74263864043674E-03  1.30582561074480E-02
 cg2d: Sum(rhs),rhsMax =   1.74294074109068E-03  1.30581982388226E-02
 cg2d: Sum(rhs),rhsMax =   1.74324190532963E-03  1.30581404388757E-02
 cg2d: Sum(rhs),rhsMax =   1.74354218141124E-03  1.30580827142935E-02
 cg2d: Sum(rhs),rhsMax =   1.74384149283983E-03  1.30580250603858E-02
 cg2d: Sum(rhs),rhsMax =   1.74414000522821E-03  1.30579674820110E-02
 cg2d: Sum(rhs),rhsMax =   1.74443759563900E-03  1.30579099729152E-02
 cg2d: Sum(rhs),rhsMax =   1.74473432093506E-03  1.30578525394522E-02
 cg2d: Sum(rhs),rhsMax =   1.74503017259257E-03  1.30577951767481E-02
 cg2d: Sum(rhs),rhsMax =   1.74532516109478E-03  1.30577378907634E-02
 cg2d: Sum(rhs),rhsMax =   1.74561916293817E-03  1.30576806731310E-02
 cg2d: Sum(rhs),rhsMax =   1.74591240640689E-03  1.30576235377412E-02
 cg2d: Sum(rhs),rhsMax =   1.74620479529490E-03  1.30575664741607E-02
 cg2d: Sum(rhs),rhsMax =   1.74649634219937E-03  1.30575094864160E-02
 cg2d: Sum(rhs),rhsMax =   1.74678702119650E-03  1.30574525713702E-02
 cg2d: Sum(rhs),rhsMax =   1.74707688463051E-03  1.30573957333601E-02
 cg2d: Sum(rhs),rhsMax =   1.74736588808018E-03  1.30573389694259E-02
 cg2d: Sum(rhs),rhsMax =   1.74765404680629E-03  1.30572822823023E-02
 cg2d: Sum(rhs),rhsMax =   1.74794142783819E-03  1.30572256692139E-02
 cg2d: Sum(rhs),rhsMax =   1.74822797756515E-03  1.30571691351891E-02
 cg2d: Sum(rhs),rhsMax =   1.74851376041488E-03  1.30571126758801E-02
 cg2d: Sum(rhs),rhsMax =   1.74879865644179E-03  1.30570562976459E-02
 cg2d: Sum(rhs),rhsMax =   1.74908283830151E-03  1.30569999933207E-02
 cg2d: Sum(rhs),rhsMax =   1.74936622370019E-03  1.30569437690497E-02
 cg2d: Sum(rhs),rhsMax =   1.74964881270531E-03  1.30568876192657E-02
 cg2d: Sum(rhs),rhsMax =   1.74993065869347E-03  1.30568315530373E-02
 cg2d: Sum(rhs),rhsMax =   1.75021167993751E-03  1.30567755611806E-02
 cg2d: Sum(rhs),rhsMax =   1.75049201878954E-03  1.30567196511731E-02
 cg2d: Sum(rhs),rhsMax =   1.75077157745325E-03  1.30566638178075E-02
 cg2d: Sum(rhs),rhsMax =   1.75105043277180E-03  1.30566080667407E-02
 cg2d: Sum(rhs),rhsMax =   1.75132852866559E-03  1.30565523928499E-02
 cg2d: Sum(rhs),rhsMax =   1.75160592627812E-03  1.30564967992966E-02
 cg2d: Sum(rhs),rhsMax =   1.75188248735196E-03  1.30564412840941E-02
 cg2d: Sum(rhs),rhsMax =   1.75215843174036E-03  1.30563858520913E-02
 cg2d: Sum(rhs),rhsMax =   1.75243364206165E-03  1.30563304971764E-02
 cg2d: Sum(rhs),rhsMax =   1.75272888128731E-03  1.30562752235633E-02
 cg2d: Sum(rhs),rhsMax =   1.75302330494275E-03  1.30562200310354E-02
 cg2d: Sum(rhs),rhsMax =   1.75331703965433E-03  1.30561649244488E-02
 cg2d: Sum(rhs),rhsMax =   1.75360992946510E-03  1.30561098952658E-02
 cg2d: Sum(rhs),rhsMax =   1.75390215843986E-03  1.30560549530873E-02
(PID.TID 0000.0001)      cg2d_init_res =   1.97550256165383E-03
(PID.TID 0000.0001)      cg2d_iters(min,last) =      -1     358
(PID.TID 0000.0001)      cg2d_last_res =   9.88362258901396E-08
(PID.TID 0000.0001) // =======================================================
(PID.TID 0000.0001) // Begin MONITOR dynamic field statistics
(PID.TID 0000.0001) // =======================================================
(PID.TID 0000.0001) %MON time_tsnumber                =                 15264
(PID.TID 0000.0001) %MON time_secondsf                =   1.8316800000000E+07
(PID.TID 0000.0001) %MON dynstat_eta_max              =   1.2789527531121E-01
(PID.TID 0000.0001) %MON dynstat_eta_min              =  -3.1968153997907E-01
(PID.TID 0000.0001) %MON dynstat_eta_mean             =  -1.0898927799363E-07
(PID.TID 0000.0001) %MON dynstat_eta_sd               =   1.1410047030419E-01
(PID.TID 0000.0001) %MON dynstat_eta_del2             =   6.9106398443274E-07
(PID.TID 0000.0001) %MON dynstat_uvel_max             =   1.2218867765405E-01
(PID.TID 0000.0001) %MON dynstat_uvel_min             =  -1.2620566994632E-01
(PID.TID 0000.0001) %MON dynstat_uvel_mean            =  -2.1314443435672E-08
(PID.TID 0000.0001) %MON dynstat_uvel_sd              =   4.7740041382699E-02
(PID.TID 0000.0001) %MON dynstat_uvel_del2            =   1.0447801955599E-06
(PID.TID 0000.0001) %MON dynstat_vvel_max             =   1.4196126182336E-01
(PID.TID 0000.0001) %MON dynstat_vvel_min             =  -1.1490176270556E-01
(PID.TID 0000.0001) %MON dynstat_vvel_mean            =   2.6068420814661E-09
(PID.TID 0000.0001) %MON dynstat_vvel_sd              =   4.4735611456276E-02
(PID.TID 0000.0001) %MON dynstat_vvel_del2            =   1.2776043943900E-06
(PID.TID 0000.0001) %MON dynstat_wvel_max             =   5.1034498214722E-09
(PID.TID 0000.0001) %MON dynstat_wvel_min             =  -7.9083492001519E-09
(PID.TID 0000.0001) %MON dynstat_wvel_mean            =   3.0500267248186E-22
(PID.TID 0000.0001) %MON dynstat_wvel_sd              =   2.9700139912360E-09
(PID.TID 0000.0001) %MON dynstat_wvel_del2            =   3.1527137845617E-14
(PID.TID 0000.0001) %MON dynstat_theta_max            =   2.0000000000000E+01
(PID.TID 0000.0001) %MON dynstat_theta_min            =   2.0000000000000E+01
(PID.TID 0000.0001) %MON dynstat_theta_mean           =   1.9999999999999E+01
(PID.TID 0000.0001) %MON dynstat_theta_sd             =   1.1972645097557E-12
(PID.TID 0000.0001) %MON dynstat_theta_del2           =   0.0000000000000E+00
(PID.TID 0000.0001) %MON dynstat_salt_max             =   3.0000000000000E+01
(PID.TID 0000.0001) %MON dynstat_salt_min             =   3.0000000000000E+01
(PID.TID 0000.0001) %MON dynstat_salt_mean            =   2.9999999999998E+01
(PID.TID 0000.0001) %MON dynstat_salt_sd              =   2.1529444893531E-12
(PID.TID 0000.0001) %MON dynstat_salt_del2            =   0.0000000000000E+00
(PID.TID 0000.0001) %MON trAdv_CFL_u_max              =   3.0288778196650E-02
(PID.TID 0000.0001) %MON trAdv_CFL_v_max              =   3.4069100948186E-02
(PID.TID 0000.0001) %MON trAdv_CFL_w_max              =   1.3099413512730E-09
(PID.TID 0000.0001) %MON advcfl_uvel_max              =   3.0289360787116E-02
(PID.TID 0000.0001) %MON advcfl_vvel_max              =   3.4070702837606E-02
(PID.TID 0000.0001) %MON advcfl_wvel_max              =   3.7960076160729E-09
(PID.TID 0000.0001) %MON advcfl_W_hf_max              =   0.0000000000000E+00
(PID.TID 0000.0001) %MON pe_b_mean                    =   1.3320135595640E-05
(PID.TID 0000.0001) %MON ke_max                       =   1.0116510687297E-02
(PID.TID 0000.0001) %MON ke_mean                      =   2.1305594175185E-03
(PID.TID 0000.0001) %MON ke_vol                       =   7.2529629296391E+15
(PID.TID 0000.0001) %MON vort_r_min                   =  -4.1569813247944E-06
(PID.TID 0000.0001) %MON vort_r_max                   =   3.3634600445461E-06
(PID.TID 0000.0001) %MON vort_a_mean                  =   1.0615000000000E-04
(PID.TID 0000.0001) %MON vort_a_sd                    =   3.6347497215889E-06
(PID.TID 0000.0001) %MON vort_p_mean                  =   1.1210870169429E-04
(PID.TID 0000.0001) %MON vort_p_sd                    =   2.1068004619444E-05
(PID.TID 0000.0001) %MON surfExpan_theta_mean         =   6.0565349637695E-21
(PID.TID 0000.0001) %MON surfExpan_salt_mean          =   9.0906120917916E-21
(PID.TID 0000.0001) // =======================================================
(PID.TID 0000.0001) // End MONITOR dynamic field statistics
(PID.TID 0000.0001) // =======================================================
 cg2d: Sum(rhs),rhsMax =   1.75419345522930E-03  1.30560000877628E-02
 cg2d: Sum(rhs),rhsMax =   1.75459043092293E-03  1.30559453170960E-02
 cg2d: Sum(rhs),rhsMax =   1.75498637990208E-03  1.30558906159615E-02
 cg2d: Sum(rhs),rhsMax =   1.75538119300633E-03  1.30558360054957E-02
 cg2d: Sum(rhs),rhsMax =   1.75577496182788E-03  1.30557814724437E-02
 cg2d: Sum(rhs),rhsMax =   1.75616771500083E-03  1.30557270280152E-02
 cg2d: Sum(rhs),rhsMax =   1.75655928840557E-03  1.30556726624135E-02
 cg2d: Sum(rhs),rhsMax =   1.75694992054478E-03  1.30556183866784E-02
 cg2d: Sum(rhs),rhsMax =   1.75733952967161E-03  1.30555641884264E-02
 cg2d: Sum(rhs),rhsMax =   1.75772820606372E-03  1.30555100819774E-02
 cg2d: Sum(rhs),rhsMax =   1.75811585992205E-03  1.30554560553568E-02
 cg2d: Sum(rhs),rhsMax =   1.75850261237424E-03  1.30554021207646E-02
 cg2d: Sum(rhs),rhsMax =   1.75888838031651E-03  1.30553482644529E-02
 cg2d: Sum(rhs),rhsMax =   1.75927327499469E-03  1.30552944998653E-02
 cg2d: Sum(rhs),rhsMax =   1.75965720797723E-03  1.30552408150564E-02
 cg2d: Sum(rhs),rhsMax =   1.76004029709911E-03  1.30551872241108E-02
 cg2d: Sum(rhs),rhsMax =   1.76042247840294E-03  1.30551337128252E-02
 cg2d: Sum(rhs),rhsMax =   1.76080375971359E-03  1.30550802942220E-02
 cg2d: Sum(rhs),rhsMax =   1.76118426403969E-03  1.30550269577306E-02
 cg2d: Sum(rhs),rhsMax =   1.76156397029728E-03  1.30549737133207E-02
 cg2d: Sum(rhs),rhsMax =   1.76194285758459E-03  1.30549205537908E-02
 cg2d: Sum(rhs),rhsMax =   1.76232081954432E-03  1.30548674894466E-02
 cg2d: Sum(rhs),rhsMax =   1.76269813291586E-03  1.30548145008260E-02
 cg2d: Sum(rhs),rhsMax =   1.76307468028896E-03  1.30547616104080E-02
 cg2d: Sum(rhs),rhsMax =   1.76345055098998E-03  1.30547088021013E-02
 cg2d: Sum(rhs),rhsMax =   1.76382563540486E-03  1.30546560926019E-02
 cg2d: Sum(rhs),rhsMax =   1.76420003178539E-03  1.30546034614162E-02
 cg2d: Sum(rhs),rhsMax =   1.76457371438006E-03  1.30545509285521E-02
 cg2d: Sum(rhs),rhsMax =   1.76494676646422E-03  1.30544984783809E-02
 cg2d: Sum(rhs),rhsMax =   1.76531911997960E-03  1.30544461262823E-02
 cg2d: Sum(rhs),rhsMax =   1.76569089364657E-03  1.30543938562742E-02
 cg2d: Sum(rhs),rhsMax =   1.76606178692945E-03  1.30543416852488E-02
 cg2d: Sum(rhs),rhsMax =   1.76643222315020E-03  1.30542895988148E-02
 cg2d: Sum(rhs),rhsMax =   1.76682239012575E-03  1.30542376021219E-02
 cg2d: Sum(rhs),rhsMax =   1.76721181441716E-03  1.30541857020064E-02
 cg2d: Sum(rhs),rhsMax =   1.76760078568453E-03  1.30541338923929E-02
 cg2d: Sum(rhs),rhsMax =   1.76798907400823E-03  1.30540821752423E-02
 cg2d: Sum(rhs),rhsMax =   1.76837685953171E-03  1.30540305493086E-02
 cg2d: Sum(rhs),rhsMax =   1.76876411136007E-03  1.30539790173771E-02
 cg2d: Sum(rhs),rhsMax =   1.76915075760068E-03  1.30539275778870E-02
 cg2d: Sum(rhs),rhsMax =   1.76953692882441E-03  1.30538762322743E-02
 cg2d: Sum(rhs),rhsMax =   1.76992256340498E-03  1.30538249782782E-02
 cg2d: Sum(rhs),rhsMax =   1.77030771780958E-03  1.30537738224360E-02
 cg2d: Sum(rhs),rhsMax =   1.77069240499500E-03  1.30537227560734E-02
 cg2d: Sum(rhs),rhsMax =   1.77107665248789E-03  1.30536717880600E-02
 cg2d: Sum(rhs),rhsMax =   1.77146048932088E-03  1.30536209095197E-02
 cg2d: Sum(rhs),rhsMax =   1.77184375063625E-03  1.30535701297800E-02
 cg2d: Sum(rhs),rhsMax =   1.77222669477299E-03  1.30535194410789E-02
 cg2d: Sum(rhs),rhsMax =   1.77260917858910E-03  1.30534688514787E-02
 cg2d: Sum(rhs),rhsMax =   1.77299133005843E-03  1.30534183537166E-02
 cg2d: Sum(rhs),rhsMax =   1.77337311437264E-03  1.30533679559939E-02
 cg2d: Sum(rhs),rhsMax =   1.77375451634209E-03  1.30533176497250E-02
 cg2d: Sum(rhs),rhsMax =   1.77413547965867E-03  1.30532674448832E-02
 cg2d: Sum(rhs),rhsMax =   1.77451617043803E-03  1.30532173305558E-02
 cg2d: Sum(rhs),rhsMax =   1.77489652090484E-03  1.30531673181507E-02
 cg2d: Sum(rhs),rhsMax =   1.77527660218931E-03  1.30531173983706E-02
 cg2d: Sum(rhs),rhsMax =   1.77565634440236E-03  1.30530675804345E-02
 cg2d: Sum(rhs),rhsMax =   1.77603584863039E-03  1.30530178552429E-02
 cg2d: Sum(rhs),rhsMax =   1.77641499703278E-03  1.30529682317282E-02
 cg2d: Sum(rhs),rhsMax =   1.77679390653791E-03  1.30529187035701E-02
 cg2d: Sum(rhs),rhsMax =   1.77717251133438E-03  1.30528692775017E-02
 cg2d: Sum(rhs),rhsMax =   1.77755089332790E-03  1.30528199457877E-02
 cg2d: Sum(rhs),rhsMax =   1.77792901958182E-03  1.30527707180459E-02
 cg2d: Sum(rhs),rhsMax =   1.77830691110353E-03  1.30527215847567E-02
 cg2d: Sum(rhs),rhsMax =   1.77868459366675E-03  1.30526725553447E-02
 cg2d: Sum(rhs),rhsMax =   1.77906201501610E-03  1.30526236212154E-02
 cg2d: Sum(rhs),rhsMax =   1.77943922315842E-03  1.30525747934483E-02
 cg2d: Sum(rhs),rhsMax =   1.77981624118828E-03  1.30525260592228E-02
 cg2d: Sum(rhs),rhsMax =   1.78019311239573E-03  1.30524774307184E-02
 cg2d: Sum(rhs),rhsMax =   1.78056975716025E-03  1.30524288961491E-02
 cg2d: Sum(rhs),rhsMax =   1.78094619443153E-03  1.30523804693211E-02
 cg2d: Sum(rhs),rhsMax =   1.78132246712780E-03  1.30523321367077E-02
(PID.TID 0000.0001)      cg2d_init_res =   1.96981124693417E-03
(PID.TID 0000.0001)      cg2d_iters(min,last) =      -1     353
(PID.TID 0000.0001)      cg2d_last_res =   9.77800347514400E-08
(PID.TID 0000.0001) // =======================================================
(PID.TID 0000.0001) // Begin MONITOR dynamic field statistics
(PID.TID 0000.0001) // =======================================================
(PID.TID 0000.0001) %MON time_tsnumber                =                 15336
(PID.TID 0000.0001) %MON time_secondsf                =   1.8403200000000E+07
(PID.TID 0000.0001) %MON dynstat_eta_max              =   1.2806158641305E-01
(PID.TID 0000.0001) %MON dynstat_eta_min              =  -3.2035235518960E-01
(PID.TID 0000.0001) %MON dynstat_eta_mean             =  -1.1066667795305E-07
(PID.TID 0000.0001) %MON dynstat_eta_sd               =   1.1427820711652E-01
(PID.TID 0000.0001) %MON dynstat_eta_del2             =   6.9212780076439E-07
(PID.TID 0000.0001) %MON dynstat_uvel_max             =   1.2235700195609E-01
(PID.TID 0000.0001) %MON dynstat_uvel_min             =  -1.2638012773281E-01
(PID.TID 0000.0001) %MON dynstat_uvel_mean            =  -1.1480023686701E-08
(PID.TID 0000.0001) %MON dynstat_uvel_sd              =   4.7807601389580E-02
(PID.TID 0000.0001) %MON dynstat_uvel_del2            =   1.0459930888190E-06
(PID.TID 0000.0001) %MON dynstat_vvel_max             =   1.4244172383893E-01
(PID.TID 0000.0001) %MON dynstat_vvel_min             =  -1.1512145127071E-01
(PID.TID 0000.0001) %MON dynstat_vvel_mean            =   5.3993635597876E-09
(PID.TID 0000.0001) %MON dynstat_vvel_sd              =   4.4837825863000E-02
(PID.TID 0000.0001) %MON dynstat_vvel_del2            =   1.2775578231408E-06
(PID.TID 0000.0001) %MON dynstat_wvel_max             =   4.8805638402700E-09
(PID.TID 0000.0001) %MON dynstat_wvel_min             =  -7.7056786604226E-09
(PID.TID 0000.0001) %MON dynstat_wvel_mean            =   2.8794106564281E-21
(PID.TID 0000.0001) %MON dynstat_wvel_sd              =   2.9481427400000E-09
(PID.TID 0000.0001) %MON dynstat_wvel_del2            =   3.1525433386163E-14
(PID.TID 0000.0001) %MON dynstat_theta_max            =   2.0000000000000E+01
(PID.TID 0000.0001) %MON dynstat_theta_min            =   2.0000000000000E+01
(PID.TID 0000.0001) %MON dynstat_theta_mean           =   1.9999999999999E+01
(PID.TID 0000.0001) %MON dynstat_theta_sd             =   1.1972645097557E-12
(PID.TID 0000.0001) %MON dynstat_theta_del2           =   0.0000000000000E+00
(PID.TID 0000.0001) %MON dynstat_salt_max             =   3.0000000000000E+01
(PID.TID 0000.0001) %MON dynstat_salt_min             =   3.0000000000000E+01
(PID.TID 0000.0001) %MON dynstat_salt_mean            =   2.9999999999998E+01
(PID.TID 0000.0001) %MON dynstat_salt_sd              =   2.1529444893531E-12
(PID.TID 0000.0001) %MON dynstat_salt_del2            =   0.0000000000000E+00
(PID.TID 0000.0001) %MON trAdv_CFL_u_max              =   3.0330649931079E-02
(PID.TID 0000.0001) %MON trAdv_CFL_v_max              =   3.4184413724926E-02
(PID.TID 0000.0001) %MON trAdv_CFL_w_max              =   1.2320265096308E-09
(PID.TID 0000.0001) %MON advcfl_uvel_max              =   3.0331230655874E-02
(PID.TID 0000.0001) %MON advcfl_vvel_max              =   3.4186013721343E-02
(PID.TID 0000.0001) %MON advcfl_wvel_max              =   3.6987257570028E-09
(PID.TID 0000.0001) %MON advcfl_W_hf_max              =   0.0000000000000E+00
(PID.TID 0000.0001) %MON pe_b_mean                    =   1.3361666053331E-05
(PID.TID 0000.0001) %MON ke_max                       =   1.0185464991436E-02
(PID.TID 0000.0001) %MON ke_mean                      =   2.1383297298068E-03
(PID.TID 0000.0001) %MON ke_vol                       =   7.2529629296391E+15
(PID.TID 0000.0001) %MON vort_r_min                   =  -4.1556480389389E-06
(PID.TID 0000.0001) %MON vort_r_max                   =   3.3633887158549E-06
(PID.TID 0000.0001) %MON vort_a_mean                  =   1.0615000000000E-04
(PID.TID 0000.0001) %MON vort_a_sd                    =   3.6349600897769E-06
(PID.TID 0000.0001) %MON vort_p_mean                  =   1.1210870169429E-04
(PID.TID 0000.0001) %MON vort_p_sd                    =   2.1068085774124E-05
(PID.TID 0000.0001) %MON surfExpan_theta_mean         =   5.7549368359767E-20
(PID.TID 0000.0001) %MON surfExpan_salt_mean          =   8.6329336170940E-20
(PID.TID 0000.0001) // =======================================================
(PID.TID 0000.0001) // End MONITOR dynamic field statistics
(PID.TID 0000.0001) // =======================================================
 cg2d: Sum(rhs),rhsMax =   1.78169849308934E-03  1.30522839106206E-02
 cg2d: Sum(rhs),rhsMax =   1.78207440968744E-03  1.30522357817179E-02
 cg2d: Sum(rhs),rhsMax =   1.78245014843523E-03  1.30521877596045E-02
 cg2d: Sum(rhs),rhsMax =   1.78282573610982E-03  1.30521398354023E-02
 cg2d: Sum(rhs),rhsMax =   1.78320112826312E-03  1.30520920177223E-02
 cg2d: Sum(rhs),rhsMax =   1.78357637139187E-03  1.30520442999708E-02
 cg2d: Sum(rhs),rhsMax =   1.78395135450043E-03  1.30519966901155E-02
 cg2d: Sum(rhs),rhsMax =   1.78432622170354E-03  1.30519491778306E-02
 cg2d: Sum(rhs),rhsMax =   1.78470091787893E-03  1.30519017746286E-02
 cg2d: Sum(rhs),rhsMax =   1.78507547739858E-03  1.30518544695303E-02
 cg2d: Sum(rhs),rhsMax =   1.78544986171317E-03  1.30518072743154E-02
 cg2d: Sum(rhs),rhsMax =   1.78582406387665E-03  1.30517601762644E-02
 cg2d: Sum(rhs),rhsMax =   1.78619799459853E-03  1.30517131903502E-02
 cg2d: Sum(rhs),rhsMax =   1.78657183664315E-03  1.30516662997012E-02
 cg2d: Sum(rhs),rhsMax =   1.78694545560447E-03  1.30516195189331E-02
 cg2d: Sum(rhs),rhsMax =   1.78731892041850E-03  1.30515728412612E-02
 cg2d: Sum(rhs),rhsMax =   1.78769215455838E-03  1.30515262730870E-02
 cg2d: Sum(rhs),rhsMax =   1.78806516833721E-03  1.30514798065576E-02
 cg2d: Sum(rhs),rhsMax =   1.78843796222003E-03  1.30514334494509E-02
 cg2d: Sum(rhs),rhsMax =   1.78881049755932E-03  1.30513871964953E-02
 cg2d: Sum(rhs),rhsMax =   1.78918277979035E-03  1.30513410546408E-02
 cg2d: Sum(rhs),rhsMax =   1.78955479194741E-03  1.30512950137487E-02
 cg2d: Sum(rhs),rhsMax =   1.78992651568425E-03  1.30512490863495E-02
 cg2d: Sum(rhs),rhsMax =   1.79029795812377E-03  1.30512032582611E-02
 cg2d: Sum(rhs),rhsMax =   1.79066915709593E-03  1.30511575425490E-02
 cg2d: Sum(rhs),rhsMax =   1.79104003619334E-03  1.30511119303676E-02
 cg2d: Sum(rhs),rhsMax =   1.79141052475908E-03  1.30510664302837E-02
 cg2d: Sum(rhs),rhsMax =   1.79178071248756E-03  1.30510210359106E-02
 cg2d: Sum(rhs),rhsMax =   1.79215054340060E-03  1.30509757548314E-02
 cg2d: Sum(rhs),rhsMax =   1.79251999419694E-03  1.30509305760273E-02
 cg2d: Sum(rhs),rhsMax =   1.79288901847567E-03  1.30508855117146E-02
 cg2d: Sum(rhs),rhsMax =   1.79325760644542E-03  1.30508405509090E-02
 cg2d: Sum(rhs),rhsMax =   1.79362562836115E-03  1.30507957062202E-02
 cg2d: Sum(rhs),rhsMax =   1.79399327170798E-03  1.30507509623831E-02
 cg2d: Sum(rhs),rhsMax =   1.79436039727834E-03  1.30507063334395E-02
 cg2d: Sum(rhs),rhsMax =   1.79472700960383E-03  1.30506618121560E-02
 cg2d: Sum(rhs),rhsMax =   1.79509300577531E-03  1.30506174042907E-02
 cg2d: Sum(rhs),rhsMax =   1.79545844768982E-03  1.30505731047629E-02
 cg2d: Sum(rhs),rhsMax =   1.79582317768494E-03  1.30505289206874E-02
 cg2d: Sum(rhs),rhsMax =   1.79618729917205E-03  1.30504848440682E-02
 cg2d: Sum(rhs),rhsMax =   1.79655071822101E-03  1.30504408824813E-02
 cg2d: Sum(rhs),rhsMax =   1.79691337700967E-03  1.30503970263512E-02
 cg2d: Sum(rhs),rhsMax =   1.79727529657513E-03  1.30503532871748E-02
 cg2d: Sum(rhs),rhsMax =   1.79763636442036E-03  1.30503096543438E-02
 cg2d: Sum(rhs),rhsMax =   1.79799655471548E-03  1.30502661396452E-02
 cg2d: Sum(rhs),rhsMax =   1.79835591464650E-03  1.30502227322537E-02
 cg2d: Sum(rhs),rhsMax =   1.79871433537318E-03  1.30501794423787E-02
 cg2d: Sum(rhs),rhsMax =   1.79907178296861E-03  1.30501362594110E-02
 cg2d: Sum(rhs),rhsMax =   1.79942820008659E-03  1.30500931933139E-02
 cg2d: Sum(rhs),rhsMax =   1.79978356650154E-03  1.30500502395786E-02
 cg2d: Sum(rhs),rhsMax =   1.80013779634058E-03  1.30500074020704E-02
 cg2d: Sum(rhs),rhsMax =   1.80050963485157E-03  1.30499646839602E-02
 cg2d: Sum(rhs),rhsMax =   1.80088010046828E-03  1.30499220676103E-02
 cg2d: Sum(rhs),rhsMax =   1.80124925369570E-03  1.30498795757626E-02
 cg2d: Sum(rhs),rhsMax =   1.80161683671563E-03  1.30498371918598E-02
 cg2d: Sum(rhs),rhsMax =   1.80198299477127E-03  1.30497949244480E-02
 cg2d: Sum(rhs),rhsMax =   1.80234757570278E-03  1.30497527683964E-02
 cg2d: Sum(rhs),rhsMax =   1.80271049803930E-03  1.30497107363483E-02
 cg2d: Sum(rhs),rhsMax =   1.80307189723655E-03  1.30496688142443E-02
 cg2d: Sum(rhs),rhsMax =   1.80343157053124E-03  1.30496270091233E-02
 cg2d: Sum(rhs),rhsMax =   1.80378948748039E-03  1.30495853185348E-02
 cg2d: Sum(rhs),rhsMax =   1.80414558499170E-03  1.30495437474624E-02
 cg2d: Sum(rhs),rhsMax =   1.80449985734695E-03  1.30495022884864E-02
 cg2d: Sum(rhs),rhsMax =   1.80485220566972E-03  1.30494609513058E-02
 cg2d: Sum(rhs),rhsMax =   1.80520264591518E-03  1.30494197252918E-02
 cg2d: Sum(rhs),rhsMax =   1.80555093529333E-03  1.30493786222765E-02
 cg2d: Sum(rhs),rhsMax =   1.80589733869901E-03  1.30493376303973E-02
 cg2d: Sum(rhs),rhsMax =   1.80638471063112E-03  1.30492967610679E-02
 cg2d: Sum(rhs),rhsMax =   1.80688605228490E-03  1.30492560106585E-02
 cg2d: Sum(rhs),rhsMax =   1.80738312866748E-03  1.30492153768610E-02
 cg2d: Sum(rhs),rhsMax =   1.80787601129149E-03  1.30491748579087E-02
 cg2d: Sum(rhs),rhsMax =   1.80836449622298E-03  1.30491344621701E-02
(PID.TID 0000.0001)      cg2d_init_res =   1.96317131698077E-03
(PID.TID 0000.0001)      cg2d_iters(min,last) =      -1     343
(PID.TID 0000.0001)      cg2d_last_res =   9.98111580752358E-08
(PID.TID 0000.0001) // =======================================================
(PID.TID 0000.0001) // Begin MONITOR dynamic field statistics
(PID.TID 0000.0001) // =======================================================
(PID.TID 0000.0001) %MON time_tsnumber                =                 15408
(PID.TID 0000.0001) %MON time_secondsf                =   1.8489600000000E+07
(PID.TID 0000.0001) %MON dynstat_eta_max              =   1.2822520507261E-01
(PID.TID 0000.0001) %MON dynstat_eta_min              =  -3.2100759919115E-01
(PID.TID 0000.0001) %MON dynstat_eta_mean             =  -1.1232666928703E-07
(PID.TID 0000.0001) %MON dynstat_eta_sd               =   1.1445388405808E-01
(PID.TID 0000.0001) %MON dynstat_eta_del2             =   6.9318334776478E-07
(PID.TID 0000.0001) %MON dynstat_uvel_max             =   1.2249800535309E-01
(PID.TID 0000.0001) %MON dynstat_uvel_min             =  -1.2655423464001E-01
(PID.TID 0000.0001) %MON dynstat_uvel_mean            =  -4.1063300277227E-10
(PID.TID 0000.0001) %MON dynstat_uvel_sd              =   4.7871074938304E-02
(PID.TID 0000.0001) %MON dynstat_uvel_del2            =   1.0472289825976E-06
(PID.TID 0000.0001) %MON dynstat_vvel_max             =   1.4292426987693E-01
(PID.TID 0000.0001) %MON dynstat_vvel_min             =  -1.1534054441544E-01
(PID.TID 0000.0001) %MON dynstat_vvel_mean            =   6.3976316359493E-09
(PID.TID 0000.0001) %MON dynstat_vvel_sd              =   4.4942299410560E-02
(PID.TID 0000.0001) %MON dynstat_vvel_del2            =   1.2775417447063E-06
(PID.TID 0000.0001) %MON dynstat_wvel_max             =   5.1515726279467E-09
(PID.TID 0000.0001) %MON dynstat_wvel_min             =  -7.5220834370703E-09
(PID.TID 0000.0001) %MON dynstat_wvel_mean            =  -7.0075531198658E-21
(PID.TID 0000.0001) %MON dynstat_wvel_sd              =   2.9231697179454E-09
(PID.TID 0000.0001) %MON dynstat_wvel_del2            =   3.1647839110165E-14
(PID.TID 0000.0001) %MON dynstat_theta_max            =   2.0000000000000E+01
(PID.TID 0000.0001) %MON dynstat_theta_min            =   2.0000000000000E+01
(PID.TID 0000.0001) %MON dynstat_theta_mean           =   1.9999999999999E+01
(PID.TID 0000.0001) %MON dynstat_theta_sd             =   1.1972645097557E-12
(PID.TID 0000.0001) %MON dynstat_theta_del2           =   0.0000000000000E+00
(PID.TID 0000.0001) %MON dynstat_salt_max             =   3.0000000000000E+01
(PID.TID 0000.0001) %MON dynstat_salt_min             =   3.0000000000000E+01
(PID.TID 0000.0001) %MON dynstat_salt_mean            =   2.9999999999998E+01
(PID.TID 0000.0001) %MON dynstat_salt_sd              =   2.1529444893531E-12
(PID.TID 0000.0001) %MON dynstat_salt_del2            =   0.0000000000000E+00
(PID.TID 0000.0001) %MON trAdv_CFL_u_max              =   3.0372436109092E-02
(PID.TID 0000.0001) %MON trAdv_CFL_v_max              =   3.4300197949487E-02
(PID.TID 0000.0001) %MON trAdv_CFL_w_max              =   1.3017039697278E-09
(PID.TID 0000.0001) %MON advcfl_uvel_max              =   3.0373016313602E-02
(PID.TID 0000.0001) %MON advcfl_vvel_max              =   3.4301824770464E-02
(PID.TID 0000.0001) %MON advcfl_wvel_max              =   3.6106000497937E-09
(PID.TID 0000.0001) %MON advcfl_W_hf_max              =   0.0000000000000E+00
(PID.TID 0000.0001) %MON pe_b_mean                    =   1.3402778719265E-05
(PID.TID 0000.0001) %MON ke_max                       =   1.0254794552722E-02
(PID.TID 0000.0001) %MON ke_mean                      =   2.1460213071907E-03
(PID.TID 0000.0001) %MON ke_vol                       =   7.2529629296391E+15
(PID.TID 0000.0001) %MON vort_r_min                   =  -4.1544686030163E-06
(PID.TID 0000.0001) %MON vort_r_max                   =   3.3632567562426E-06
(PID.TID 0000.0001) %MON vort_a_mean                  =   1.0615000000000E-04
(PID.TID 0000.0001) %MON vort_a_sd                    =   3.6351681259371E-06
(PID.TID 0000.0001) %MON vort_p_mean                  =   1.1210870169429E-04
(PID.TID 0000.0001) %MON vort_p_sd                    =   2.1068167274126E-05
(PID.TID 0000.0001) %MON surfExpan_theta_mean         =  -1.4017953798570E-19
(PID.TID 0000.0001) %MON surfExpan_salt_mean          =  -2.1027215309460E-19
(PID.TID 0000.0001) // =======================================================
(PID.TID 0000.0001) // End MONITOR dynamic field statistics
(PID.TID 0000.0001) // =======================================================
 cg2d: Sum(rhs),rhsMax =   1.80886588974270E-03  1.30490941770491E-02
 cg2d: Sum(rhs),rhsMax =   1.80936272181692E-03  1.30490540173315E-02
 cg2d: Sum(rhs),rhsMax =   1.80985521349543E-03  1.30490139741498E-02
 cg2d: Sum(rhs),rhsMax =   1.81034313077196E-03  1.30489740520838E-02
 cg2d: Sum(rhs),rhsMax =   1.81082693063768E-03  1.30489342480691E-02
 cg2d: Sum(rhs),rhsMax =   1.81132253228607E-03  1.30488945642833E-02
 cg2d: Sum(rhs),rhsMax =   1.81181385619029E-03  1.30488550002515E-02
 cg2d: Sum(rhs),rhsMax =   1.81230103576941E-03  1.30488155587327E-02
 cg2d: Sum(rhs),rhsMax =   1.81278418877608E-03  1.30487762366646E-02
 cg2d: Sum(rhs),rhsMax =   1.81327946536175E-03  1.30487370316768E-02
 cg2d: Sum(rhs),rhsMax =   1.81377084236204E-03  1.30486979514725E-02
 cg2d: Sum(rhs),rhsMax =   1.81425869654607E-03  1.30486589917896E-02
 cg2d: Sum(rhs),rhsMax =   1.81474315435298E-03  1.30486201537420E-02
 cg2d: Sum(rhs),rhsMax =   1.81522459309654E-03  1.30485814375230E-02
 cg2d: Sum(rhs),rhsMax =   1.81570314474173E-03  1.30485428440159E-02
 cg2d: Sum(rhs),rhsMax =   1.81617936699870E-03  1.30485043712018E-02
 cg2d: Sum(rhs),rhsMax =   1.81666915427553E-03  1.30484660267118E-02
 cg2d: Sum(rhs),rhsMax =   1.81715701099946E-03  1.30484277998879E-02
 cg2d: Sum(rhs),rhsMax =   1.81764344087671E-03  1.30483896943255E-02
 cg2d: Sum(rhs),rhsMax =   1.81812870561939E-03  1.30483517123367E-02
 cg2d: Sum(rhs),rhsMax =   1.81861333995447E-03  1.30483138536869E-02
 cg2d: Sum(rhs),rhsMax =   1.81909768374151E-03  1.30482761178134E-02
 cg2d: Sum(rhs),rhsMax =   1.81958224317515E-03  1.30482385047140E-02
 cg2d: Sum(rhs),rhsMax =   1.82006735359162E-03  1.30482010161310E-02
 cg2d: Sum(rhs),rhsMax =   1.82055353566194E-03  1.30481636507057E-02
 cg2d: Sum(rhs),rhsMax =   1.82104110277738E-03  1.30481264101610E-02
 cg2d: Sum(rhs),rhsMax =   1.82153062746114E-03  1.30480892938654E-02
 cg2d: Sum(rhs),rhsMax =   1.82202240877644E-03  1.30480523021391E-02
 cg2d: Sum(rhs),rhsMax =   1.82251696221337E-03  1.30480154340377E-02
 cg2d: Sum(rhs),rhsMax =   1.82299890966027E-03  1.30479786856682E-02
 cg2d: Sum(rhs),rhsMax =   1.82348424821379E-03  1.30479420682486E-02
 cg2d: Sum(rhs),rhsMax =   1.82397346853225E-03  1.30479055763795E-02
 cg2d: Sum(rhs),rhsMax =   1.82446685818518E-03  1.30478692099702E-02
 cg2d: Sum(rhs),rhsMax =   1.82496472641539E-03  1.30478329706974E-02
 cg2d: Sum(rhs),rhsMax =   1.82546754141235E-03  1.30477968554364E-02
 cg2d: Sum(rhs),rhsMax =   1.82595948444433E-03  1.30477608702909E-02
 cg2d: Sum(rhs),rhsMax =   1.82645662810034E-03  1.30477250074877E-02
 cg2d: Sum(rhs),rhsMax =   1.82695937964084E-03  1.30476892723957E-02
 cg2d: Sum(rhs),rhsMax =   1.82746790514615E-03  1.30476536639462E-02
 cg2d: Sum(rhs),rhsMax =   1.82796601374613E-03  1.30476181841791E-02
 cg2d: Sum(rhs),rhsMax =   1.82847000018750E-03  1.30475828297598E-02
 cg2d: Sum(rhs),rhsMax =   1.82898025587470E-03  1.30475476032739E-02
 cg2d: Sum(rhs),rhsMax =   1.82949677088815E-03  1.30475125039132E-02
 cg2d: Sum(rhs),rhsMax =   1.83000238986653E-03  1.30474775376040E-02
 cg2d: Sum(rhs),rhsMax =   1.83051421688988E-03  1.30474426946029E-02
 cg2d: Sum(rhs),rhsMax =   1.83103249428445E-03  1.30474079796563E-02
 cg2d: Sum(rhs),rhsMax =   1.83153871116280E-03  1.30473733904185E-02
 cg2d: Sum(rhs),rhsMax =   1.83190017997006E-03  1.30473389338911E-02
 cg2d: Sum(rhs),rhsMax =   1.83226520688591E-03  1.30473046040574E-02
 cg2d: Sum(rhs),rhsMax =   1.83263375681746E-03  1.30472704025050E-02
 cg2d: Sum(rhs),rhsMax =   1.83300566091425E-03  1.30472363312145E-02
 cg2d: Sum(rhs),rhsMax =   1.83338108392687E-03  1.30472023895285E-02
 cg2d: Sum(rhs),rhsMax =   1.83375987680074E-03  1.30471685777887E-02
 cg2d: Sum(rhs),rhsMax =   1.83414207543365E-03  1.30471348950425E-02
 cg2d: Sum(rhs),rhsMax =   1.83450842037531E-03  1.30471013428489E-02
 cg2d: Sum(rhs),rhsMax =   1.83487776542535E-03  1.30470679199181E-02
 cg2d: Sum(rhs),rhsMax =   1.83525022468684E-03  1.30470346288591E-02
 cg2d: Sum(rhs),rhsMax =   1.83562552383708E-03  1.30470014667131E-02
 cg2d: Sum(rhs),rhsMax =   1.83600388442237E-03  1.30469684366960E-02
 cg2d: Sum(rhs),rhsMax =   1.83638513436575E-03  1.30469355365113E-02
 cg2d: Sum(rhs),rhsMax =   1.83676924719100E-03  1.30469027679823E-02
 cg2d: Sum(rhs),rhsMax =   1.83715627749041E-03  1.30468701305299E-02
 cg2d: Sum(rhs),rhsMax =   1.83754598193961E-03  1.30468376240575E-02
 cg2d: Sum(rhs),rhsMax =   1.83793856300223E-03  1.30468052510318E-02
 cg2d: Sum(rhs),rhsMax =   1.83833385185221E-03  1.30467730087922E-02
 cg2d: Sum(rhs),rhsMax =   1.83873179745375E-03  1.30467408984340E-02
 cg2d: Sum(rhs),rhsMax =   1.83911164367190E-03  1.30467089241512E-02
 cg2d: Sum(rhs),rhsMax =   1.83949378344064E-03  1.30466770783084E-02
 cg2d: Sum(rhs),rhsMax =   1.83987825060752E-03  1.30466453649952E-02
 cg2d: Sum(rhs),rhsMax =   1.84026487066819E-03  1.30466137852076E-02
 cg2d: Sum(rhs),rhsMax =   1.84054684985172E-03  1.30465823305870E-02
 cg2d: Sum(rhs),rhsMax =   1.84083000787452E-03  1.30465510167855E-02
(PID.TID 0000.0001)      cg2d_init_res =   1.95440524607957E-03
(PID.TID 0000.0001)      cg2d_iters(min,last) =      -1     358
(PID.TID 0000.0001)      cg2d_last_res =   9.84833848498435E-08
(PID.TID 0000.0001) // =======================================================
(PID.TID 0000.0001) // Begin MONITOR dynamic field statistics
(PID.TID 0000.0001) // =======================================================
(PID.TID 0000.0001) %MON time_tsnumber                =                 15480
(PID.TID 0000.0001) %MON time_secondsf                =   1.8576000000000E+07
(PID.TID 0000.0001) %MON dynstat_eta_max              =   1.2838399332248E-01
(PID.TID 0000.0001) %MON dynstat_eta_min              =  -3.2164701081488E-01
(PID.TID 0000.0001) %MON dynstat_eta_mean             =  -1.1430667044680E-07
(PID.TID 0000.0001) %MON dynstat_eta_sd               =   1.1462757045895E-01
(PID.TID 0000.0001) %MON dynstat_eta_del2             =   6.9423185149353E-07
(PID.TID 0000.0001) %MON dynstat_uvel_max             =   1.2261678332652E-01
(PID.TID 0000.0001) %MON dynstat_uvel_min             =  -1.2672836541416E-01
(PID.TID 0000.0001) %MON dynstat_uvel_mean            =   1.1380803215065E-08
(PID.TID 0000.0001) %MON dynstat_uvel_sd              =   4.7931256854878E-02
(PID.TID 0000.0001) %MON dynstat_uvel_del2            =   1.0485078128892E-06
(PID.TID 0000.0001) %MON dynstat_vvel_max             =   1.4341026182226E-01
(PID.TID 0000.0001) %MON dynstat_vvel_min             =  -1.1555993741077E-01
(PID.TID 0000.0001) %MON dynstat_vvel_mean            =   5.4754376870837E-09
(PID.TID 0000.0001) %MON dynstat_vvel_sd              =   4.5048199033685E-02
(PID.TID 0000.0001) %MON dynstat_vvel_del2            =   1.2775424486652E-06
(PID.TID 0000.0001) %MON dynstat_wvel_max             =   5.3933872841299E-09
(PID.TID 0000.0001) %MON dynstat_wvel_min             =  -7.3754175426438E-09
(PID.TID 0000.0001) %MON dynstat_wvel_mean            =  -9.4037020284035E-22
(PID.TID 0000.0001) %MON dynstat_wvel_sd              =   2.8969732210385E-09
(PID.TID 0000.0001) %MON dynstat_wvel_del2            =   3.1411459244409E-14
(PID.TID 0000.0001) %MON dynstat_theta_max            =   2.0000000000000E+01
(PID.TID 0000.0001) %MON dynstat_theta_min            =   2.0000000000000E+01
(PID.TID 0000.0001) %MON dynstat_theta_mean           =   1.9999999999999E+01
(PID.TID 0000.0001) %MON dynstat_theta_sd             =   1.1972645097557E-12
(PID.TID 0000.0001) %MON dynstat_theta_del2           =   0.0000000000000E+00
(PID.TID 0000.0001) %MON dynstat_salt_max             =   3.0000000000000E+01
(PID.TID 0000.0001) %MON dynstat_salt_min             =   3.0000000000000E+01
(PID.TID 0000.0001) %MON dynstat_salt_mean            =   2.9999999999998E+01
(PID.TID 0000.0001) %MON dynstat_salt_sd              =   2.1529444893531E-12
(PID.TID 0000.0001) %MON dynstat_salt_del2            =   0.0000000000000E+00
(PID.TID 0000.0001) %MON trAdv_CFL_u_max              =   3.0414226870913E-02
(PID.TID 0000.0001) %MON trAdv_CFL_v_max              =   3.4416850809816E-02
(PID.TID 0000.0001) %MON trAdv_CFL_w_max              =   1.3654038683451E-09
(PID.TID 0000.0001) %MON advcfl_uvel_max              =   3.0414807699399E-02
(PID.TID 0000.0001) %MON advcfl_vvel_max              =   3.4418462837341E-02
(PID.TID 0000.0001) %MON advcfl_wvel_max              =   3.5402004204690E-09
(PID.TID 0000.0001) %MON advcfl_W_hf_max              =   0.0000000000000E+00
(PID.TID 0000.0001) %MON pe_b_mean                    =   1.3443487633998E-05
(PID.TID 0000.0001) %MON ke_max                       =   1.0324155070233E-02
(PID.TID 0000.0001) %MON ke_mean                      =   2.1536346455998E-03
(PID.TID 0000.0001) %MON ke_vol                       =   7.2529629296391E+15
(PID.TID 0000.0001) %MON vort_r_min                   =  -4.1534757113867E-06
(PID.TID 0000.0001) %MON vort_r_max                   =   3.3630345366734E-06
(PID.TID 0000.0001) %MON vort_a_mean                  =   1.0615000000000E-04
(PID.TID 0000.0001) %MON vort_a_sd                    =   3.6353743553468E-06
(PID.TID 0000.0001) %MON vort_p_mean                  =   1.1210870169429E-04
(PID.TID 0000.0001) %MON vort_p_sd                    =   2.1068248170485E-05
(PID.TID 0000.0001) %MON surfExpan_theta_mean         =  -1.8804204233340E-20
(PID.TID 0000.0001) %MON surfExpan_salt_mean          =  -2.8207048406670E-20
(PID.TID 0000.0001) // =======================================================
(PID.TID 0000.0001) // End MONITOR dynamic field statistics
(PID.TID 0000.0001) // =======================================================
 cg2d: Sum(rhs),rhsMax =   1.84111428556077E-03  1.30465198356012E-02
 cg2d: Sum(rhs),rhsMax =   1.84139963306762E-03  1.30464887878247E-02
 cg2d: Sum(rhs),rhsMax =   1.84168609950431E-03  1.30464578748232E-02
 cg2d: Sum(rhs),rhsMax =   1.84197365953389E-03  1.30464270944860E-02
 cg2d: Sum(rhs),rhsMax =   1.84226215318349E-03  1.30463964491376E-02
 cg2d: Sum(rhs),rhsMax =   1.84255164050141E-03  1.30463659364891E-02
 cg2d: Sum(rhs),rhsMax =   1.84282156902557E-03  1.30463355625079E-02
 cg2d: Sum(rhs),rhsMax =   1.84309225428578E-03  1.30463053191904E-02
 cg2d: Sum(rhs),rhsMax =   1.84336382885139E-03  1.30462752122174E-02
 cg2d: Sum(rhs),rhsMax =   1.84363614780860E-03  1.30462452390838E-02
 cg2d: Sum(rhs),rhsMax =   1.84390922386779E-03  1.30462154016938E-02
 cg2d: Sum(rhs),rhsMax =   1.84418308424597E-03  1.30461856992623E-02
 cg2d: Sum(rhs),rhsMax =   1.84445765439666E-03  1.30461561328759E-02
 cg2d: Sum(rhs),rhsMax =   1.84473296410369E-03  1.30461267004761E-02
 cg2d: Sum(rhs),rhsMax =   1.84500897281304E-03  1.30460974042118E-02
 cg2d: Sum(rhs),rhsMax =   1.84528561985289E-03  1.30460682440698E-02
 cg2d: Sum(rhs),rhsMax =   1.84556297281484E-03  1.30460392207763E-02
 cg2d: Sum(rhs),rhsMax =   1.84584091352841E-03  1.30460103329569E-02
 cg2d: Sum(rhs),rhsMax =   1.84611948666684E-03  1.30459815829326E-02
 cg2d: Sum(rhs),rhsMax =   1.84639869607897E-03  1.30459529681232E-02
 cg2d: Sum(rhs),rhsMax =   1.84667847367362E-03  1.30459244919841E-02
 cg2d: Sum(rhs),rhsMax =   1.84695882629661E-03  1.30458961505313E-02
 cg2d: Sum(rhs),rhsMax =   1.84723975025432E-03  1.30458679488559E-02
 cg2d: Sum(rhs),rhsMax =   1.84752121021109E-03  1.30458398812633E-02
 cg2d: Sum(rhs),rhsMax =   1.84780318095003E-03  1.30458119534705E-02
 cg2d: Sum(rhs),rhsMax =   1.84808569771730E-03  1.30457841609932E-02
 cg2d: Sum(rhs),rhsMax =   1.84836869403529E-03  1.30457565086513E-02
 cg2d: Sum(rhs),rhsMax =   1.84865217804079E-03  1.30457289920529E-02
 cg2d: Sum(rhs),rhsMax =   1.84893613180853E-03  1.30457016159390E-02
 cg2d: Sum(rhs),rhsMax =   1.84922055201958E-03  1.30456743755283E-02
 cg2d: Sum(rhs),rhsMax =   1.84950543325920E-03  1.30456472754669E-02
 cg2d: Sum(rhs),rhsMax =   1.84979073760789E-03  1.30456203128554E-02
 cg2d: Sum(rhs),rhsMax =   1.85007646177491E-03  1.30455934919595E-02
 cg2d: Sum(rhs),rhsMax =   1.85036261562005E-03  1.30455668066467E-02
 cg2d: Sum(rhs),rhsMax =   1.85064915666467E-03  1.30455402639401E-02
 cg2d: Sum(rhs),rhsMax =   1.85093610664726E-03  1.30455138564795E-02
 cg2d: Sum(rhs),rhsMax =   1.85122342996881E-03  1.30454875917558E-02
 cg2d: Sum(rhs),rhsMax =   1.85151114234694E-03  1.30454614627813E-02
 cg2d: Sum(rhs),rhsMax =   1.85179916131680E-03  1.30454354763825E-02
 cg2d: Sum(rhs),rhsMax =   1.85208753481363E-03  1.30454096274320E-02
 cg2d: Sum(rhs),rhsMax =   1.85237622662495E-03  1.30453839213516E-02
 cg2d: Sum(rhs),rhsMax =   1.85266526049544E-03  1.30453583521350E-02
 cg2d: Sum(rhs),rhsMax =   1.85295463753512E-03  1.30453329260293E-02
 cg2d: Sum(rhs),rhsMax =   1.85324429364666E-03  1.30453076385567E-02
 cg2d: Sum(rhs),rhsMax =   1.85353416188955E-03  1.30452824927947E-02
 cg2d: Sum(rhs),rhsMax =   1.85382437683243E-03  1.30452574874544E-02
 cg2d: Sum(rhs),rhsMax =   1.85411485326900E-03  1.30452326256265E-02
 cg2d: Sum(rhs),rhsMax =   1.85440565441564E-03  1.30452079018451E-02
 cg2d: Sum(rhs),rhsMax =   1.85469670330827E-03  1.30451833220185E-02
 cg2d: Sum(rhs),rhsMax =   1.85498801696491E-03  1.30451588801028E-02
 cg2d: Sum(rhs),rhsMax =   1.85527951436128E-03  1.30451345826585E-02
 cg2d: Sum(rhs),rhsMax =   1.85557123782467E-03  1.30451104228065E-02
 cg2d: Sum(rhs),rhsMax =   1.85586318367406E-03  1.30450864067103E-02
 cg2d: Sum(rhs),rhsMax =   1.85615532294180E-03  1.30450625320366E-02
 cg2d: Sum(rhs),rhsMax =   1.85644770684937E-03  1.30450388020314E-02
 cg2d: Sum(rhs),rhsMax =   1.85674018469553E-03  1.30450152105824E-02
 cg2d: Sum(rhs),rhsMax =   1.85703291283698E-03  1.30449917653872E-02
 cg2d: Sum(rhs),rhsMax =   1.85732580043021E-03  1.30449684604555E-02
 cg2d: Sum(rhs),rhsMax =   1.85761889453614E-03  1.30449452994251E-02
 cg2d: Sum(rhs),rhsMax =   1.85791214369361E-03  1.30449222787102E-02
 cg2d: Sum(rhs),rhsMax =   1.85820553019992E-03  1.30448994039253E-02
 cg2d: Sum(rhs),rhsMax =   1.85849911805597E-03  1.30448766700504E-02
 cg2d: Sum(rhs),rhsMax =   1.85879277326653E-03  1.30448540811300E-02
 cg2d: Sum(rhs),rhsMax =   1.85908661584424E-03  1.30448316335544E-02
 cg2d: Sum(rhs),rhsMax =   1.85938052572620E-03  1.30448093310719E-02
 cg2d: Sum(rhs),rhsMax =   1.85967462580304E-03  1.30447871708590E-02
 cg2d: Sum(rhs),rhsMax =   1.85996879140086E-03  1.30447651555254E-02
 cg2d: Sum(rhs),rhsMax =   1.86026304348187E-03  1.30447432826921E-02
 cg2d: Sum(rhs),rhsMax =   1.86055733336227E-03  1.30447215547270E-02
 cg2d: Sum(rhs),rhsMax =   1.86085175137361E-03  1.30446999705000E-02
 cg2d: Sum(rhs),rhsMax =   1.86114624313150E-03  1.30446785323697E-02
 cg2d: Sum(rhs),rhsMax =   1.86144080496069E-03  1.30446572361068E-02
(PID.TID 0000.0001)      cg2d_init_res =   1.94264054533639E-03
(PID.TID 0000.0001)      cg2d_iters(min,last) =      -1     359
(PID.TID 0000.0001)      cg2d_last_res =   9.98825638586801E-08
(PID.TID 0000.0001) // =======================================================
(PID.TID 0000.0001) // Begin MONITOR dynamic field statistics
(PID.TID 0000.0001) // =======================================================
(PID.TID 0000.0001) %MON time_tsnumber                =                 15552
(PID.TID 0000.0001) %MON time_secondsf                =   1.8662400000000E+07
(PID.TID 0000.0001) %MON dynstat_eta_max              =   1.2853605210582E-01
(PID.TID 0000.0001) %MON dynstat_eta_min              =  -3.2227081929249E-01
(PID.TID 0000.0001) %MON dynstat_eta_mean             =  -1.1557025824225E-07
(PID.TID 0000.0001) %MON dynstat_eta_sd               =   1.1479938574237E-01
(PID.TID 0000.0001) %MON dynstat_eta_del2             =   6.9527469064583E-07
(PID.TID 0000.0001) %MON dynstat_uvel_max             =   1.2271909194164E-01
(PID.TID 0000.0001) %MON dynstat_uvel_min             =  -1.2690282394228E-01
(PID.TID 0000.0001) %MON dynstat_uvel_mean            =   2.3360203266645E-08
(PID.TID 0000.0001) %MON dynstat_uvel_sd              =   4.7989057595044E-02
(PID.TID 0000.0001) %MON dynstat_uvel_del2            =   1.0498473792694E-06
(PID.TID 0000.0001) %MON dynstat_vvel_max             =   1.4389063772089E-01
(PID.TID 0000.0001) %MON dynstat_vvel_min             =  -1.1578009291946E-01
(PID.TID 0000.0001) %MON dynstat_vvel_mean            =   2.5597633421954E-09
(PID.TID 0000.0001) %MON dynstat_vvel_sd              =   4.5154605841313E-02
(PID.TID 0000.0001) %MON dynstat_vvel_del2            =   1.2775501597038E-06
(PID.TID 0000.0001) %MON dynstat_wvel_max             =   5.6180292647332E-09
(PID.TID 0000.0001) %MON dynstat_wvel_min             =  -7.2684270888567E-09
(PID.TID 0000.0001) %MON dynstat_wvel_mean            =   1.1267921006546E-20
(PID.TID 0000.0001) %MON dynstat_wvel_sd              =   2.8715346014522E-09
(PID.TID 0000.0001) %MON dynstat_wvel_del2            =   3.1408545519126E-14
(PID.TID 0000.0001) %MON dynstat_theta_max            =   2.0000000000000E+01
(PID.TID 0000.0001) %MON dynstat_theta_min            =   2.0000000000000E+01
(PID.TID 0000.0001) %MON dynstat_theta_mean           =   1.9999999999999E+01
(PID.TID 0000.0001) %MON dynstat_theta_sd             =   1.1972645097557E-12
(PID.TID 0000.0001) %MON dynstat_theta_del2           =   0.0000000000000E+00
(PID.TID 0000.0001) %MON dynstat_salt_max             =   3.0000000000000E+01
(PID.TID 0000.0001) %MON dynstat_salt_min             =   3.0000000000000E+01
(PID.TID 0000.0001) %MON dynstat_salt_mean            =   2.9999999999998E+01
(PID.TID 0000.0001) %MON dynstat_salt_sd              =   2.1529444893531E-12
(PID.TID 0000.0001) %MON dynstat_salt_del2            =   0.0000000000000E+00
(PID.TID 0000.0001) %MON trAdv_CFL_u_max              =   3.0456095418434E-02
(PID.TID 0000.0001) %MON trAdv_CFL_v_max              =   3.4532163517820E-02
(PID.TID 0000.0001) %MON trAdv_CFL_w_max              =   1.4242881676118E-09
(PID.TID 0000.0001) %MON advcfl_uvel_max              =   3.0456677746148E-02
(PID.TID 0000.0001) %MON advcfl_vvel_max              =   3.4533753053013E-02
(PID.TID 0000.0001) %MON advcfl_wvel_max              =   3.4888450026512E-09
(PID.TID 0000.0001) %MON advcfl_W_hf_max              =   0.0000000000000E+00
(PID.TID 0000.0001) %MON pe_b_mean                    =   1.3483818728971E-05
(PID.TID 0000.0001) %MON ke_max                       =   1.0393188150816E-02
(PID.TID 0000.0001) %MON ke_mean                      =   2.1611717934566E-03
(PID.TID 0000.0001) %MON ke_vol                       =   7.2529629296391E+15
(PID.TID 0000.0001) %MON vort_r_min                   =  -4.1526984163434E-06
(PID.TID 0000.0001) %MON vort_r_max                   =   3.3627128765730E-06
(PID.TID 0000.0001) %MON vort_a_mean                  =   1.0615000000000E-04
(PID.TID 0000.0001) %MON vort_a_sd                    =   3.6355793743622E-06
(PID.TID 0000.0001) %MON vort_p_mean                  =   1.1210870169429E-04
(PID.TID 0000.0001) %MON vort_p_sd                    =   2.1068327515033E-05
(PID.TID 0000.0001) %MON surfExpan_theta_mean         =   2.2533742499970E-19
(PID.TID 0000.0001) %MON surfExpan_salt_mean          =   3.3800586509901E-19
(PID.TID 0000.0001) // =======================================================
(PID.TID 0000.0001) // End MONITOR dynamic field statistics
(PID.TID 0000.0001) // =======================================================
 cg2d: Sum(rhs),rhsMax =   1.86173545956804E-03  1.30446360865440E-02
 cg2d: Sum(rhs),rhsMax =   1.86203012305222E-03  1.30446150792847E-02
 cg2d: Sum(rhs),rhsMax =   1.86232486357013E-03  1.30445942189802E-02
 cg2d: Sum(rhs),rhsMax =   1.86261959151215E-03  1.30445735015665E-02
 cg2d: Sum(rhs),rhsMax =   1.86291438234517E-03  1.30445529318982E-02
 cg2d: Sum(rhs),rhsMax =   1.86320915650415E-03  1.30445325045272E-02
 cg2d: Sum(rhs),rhsMax =   1.86350404254794E-03  1.30445122246929E-02
 cg2d: Sum(rhs),rhsMax =   1.86379890584200E-03  1.30444920877172E-02
 cg2d: Sum(rhs),rhsMax =   1.86409376782113E-03  1.30444720986385E-02
 cg2d: Sum(rhs),rhsMax =   1.86438867761495E-03  1.30444522531877E-02
 cg2d: Sum(rhs),rhsMax =   1.86468343846208E-03  1.30444325537440E-02
 cg2d: Sum(rhs),rhsMax =   1.86497829579373E-03  1.30444130022945E-02
 cg2d: Sum(rhs),rhsMax =   1.86527312047269E-03  1.30443935974901E-02
 cg2d: Sum(rhs),rhsMax =   1.86556795103097E-03  1.30443743360976E-02
 cg2d: Sum(rhs),rhsMax =   1.86586265192752E-03  1.30443552218307E-02
 cg2d: Sum(rhs),rhsMax =   1.86615738752675E-03  1.30443362530895E-02
 cg2d: Sum(rhs),rhsMax =   1.86645202601187E-03  1.30443174317843E-02
 cg2d: Sum(rhs),rhsMax =   1.86674666640291E-03  1.30442987560331E-02
 cg2d: Sum(rhs),rhsMax =   1.86704121898276E-03  1.30442802277849E-02
 cg2d: Sum(rhs),rhsMax =   1.86733567024065E-03  1.30442618461711E-02
 cg2d: Sum(rhs),rhsMax =   1.86763005260344E-03  1.30442436130013E-02
 cg2d: Sum(rhs),rhsMax =   1.86792429378871E-03  1.30442255244651E-02
 cg2d: Sum(rhs),rhsMax =   1.86821852776579E-03  1.30442075852363E-02
 cg2d: Sum(rhs),rhsMax =   1.86851261981839E-03  1.30441897916016E-02
 cg2d: Sum(rhs),rhsMax =   1.86880667305183E-03  1.30441721471882E-02
 cg2d: Sum(rhs),rhsMax =   1.86910058664931E-03  1.30441546485370E-02
 cg2d: Sum(rhs),rhsMax =   1.86939440817317E-03  1.30441372987497E-02
 cg2d: Sum(rhs),rhsMax =   1.86968809780112E-03  1.30441200953575E-02
 cg2d: Sum(rhs),rhsMax =   1.86998145259712E-03  1.30441030384705E-02
 cg2d: Sum(rhs),rhsMax =   1.87027486628379E-03  1.30440861331625E-02
 cg2d: Sum(rhs),rhsMax =   1.87056808701084E-03  1.30440693742367E-02
 cg2d: Sum(rhs),rhsMax =   1.87086127933674E-03  1.30440527636108E-02
 cg2d: Sum(rhs),rhsMax =   1.87115421156084E-03  1.30440362998137E-02
 cg2d: Sum(rhs),rhsMax =   1.87144709978479E-03  1.30440199861335E-02
 cg2d: Sum(rhs),rhsMax =   1.87173974102036E-03  1.30440038200235E-02
 cg2d: Sum(rhs),rhsMax =   1.87203224398707E-03  1.30439878025597E-02
 cg2d: Sum(rhs),rhsMax =   1.87232453090060E-03  1.30439719331429E-02
 cg2d: Sum(rhs),rhsMax =   1.87261663912675E-03  1.30439562133199E-02
 cg2d: Sum(rhs),rhsMax =   1.87290856894691E-03  1.30439406423264E-02
 cg2d: Sum(rhs),rhsMax =   1.87320026093079E-03  1.30439252185096E-02
 cg2d: Sum(rhs),rhsMax =   1.87349181934689E-03  1.30439099458606E-02
 cg2d: Sum(rhs),rhsMax =   1.87378302402858E-03  1.30438948226348E-02
 cg2d: Sum(rhs),rhsMax =   1.87407414222786E-03  1.30438798466799E-02
 cg2d: Sum(rhs),rhsMax =   1.87436501971946E-03  1.30438650198970E-02
 cg2d: Sum(rhs),rhsMax =   1.87465572676564E-03  1.30438503430045E-02
 cg2d: Sum(rhs),rhsMax =   1.87494618638246E-03  1.30438358176574E-02
 cg2d: Sum(rhs),rhsMax =   1.87523623591632E-03  1.30438214385881E-02
 cg2d: Sum(rhs),rhsMax =   1.87552620673849E-03  1.30438072130622E-02
 cg2d: Sum(rhs),rhsMax =   1.87581594432988E-03  1.30437931366993E-02
 cg2d: Sum(rhs),rhsMax =   1.87610547749668E-03  1.30437792093182E-02
 cg2d: Sum(rhs),rhsMax =   1.87639461651051E-03  1.30437654318380E-02
 cg2d: Sum(rhs),rhsMax =   1.87668364711278E-03  1.30437518021172E-02
 cg2d: Sum(rhs),rhsMax =   1.87697230892411E-03  1.30437383226894E-02
 cg2d: Sum(rhs),rhsMax =   1.87726075939529E-03  1.30437249950391E-02
 cg2d: Sum(rhs),rhsMax =   1.87754894338086E-03  1.30437118174414E-02
 cg2d: Sum(rhs),rhsMax =   1.87783683118473E-03  1.30436987907601E-02
 cg2d: Sum(rhs),rhsMax =   1.87812445560954E-03  1.30436859137906E-02
 cg2d: Sum(rhs),rhsMax =   1.87841171884353E-03  1.30436731876336E-02
 cg2d: Sum(rhs),rhsMax =   1.87869864919019E-03  1.30436606115410E-02
 cg2d: Sum(rhs),rhsMax =   1.87898535265074E-03  1.30436481885434E-02
 cg2d: Sum(rhs),rhsMax =   1.87927177090026E-03  1.30436359155307E-02
 cg2d: Sum(rhs),rhsMax =   1.87955785957046E-03  1.30436237913428E-02
 cg2d: Sum(rhs),rhsMax =   1.87984361905121E-03  1.30436118188669E-02
 cg2d: Sum(rhs),rhsMax =   1.88012910550476E-03  1.30435999978500E-02
 cg2d: Sum(rhs),rhsMax =   1.88041423344541E-03  1.30435883285083E-02
 cg2d: Sum(rhs),rhsMax =   1.88069905904185E-03  1.30435768084179E-02
 cg2d: Sum(rhs),rhsMax =   1.88098353310388E-03  1.30435654390024E-02
 cg2d: Sum(rhs),rhsMax =   1.88126763868795E-03  1.30435542223553E-02
 cg2d: Sum(rhs),rhsMax =   1.88155144345028E-03  1.30435431577061E-02
 cg2d: Sum(rhs),rhsMax =   1.88183492462478E-03  1.30435322435795E-02
 cg2d: Sum(rhs),rhsMax =   1.88211808624283E-03  1.30435214808660E-02
 cg2d: Sum(rhs),rhsMax =   1.88240087577990E-03  1.30435108703986E-02
(PID.TID 0000.0001)      cg2d_init_res =   1.92743259977170E-03
(PID.TID 0000.0001)      cg2d_iters(min,last) =      -1     359
(PID.TID 0000.0001)      cg2d_last_res =   9.42665941749384E-08
(PID.TID 0000.0001) // =======================================================
(PID.TID 0000.0001) // Begin MONITOR dynamic field statistics
(PID.TID 0000.0001) // =======================================================
(PID.TID 0000.0001) %MON time_tsnumber                =                 15624
(PID.TID 0000.0001) %MON time_secondsf                =   1.8748800000000E+07
(PID.TID 0000.0001) %MON dynstat_eta_max              =   1.2867989718198E-01
(PID.TID 0000.0001) %MON dynstat_eta_min              =  -3.2287976183474E-01
(PID.TID 0000.0001) %MON dynstat_eta_mean             =  -1.1686045107070E-07
(PID.TID 0000.0001) %MON dynstat_eta_sd               =   1.1496949633868E-01
(PID.TID 0000.0001) %MON dynstat_eta_del2             =   6.9631338267560E-07
(PID.TID 0000.0001) %MON dynstat_uvel_max             =   1.2281109637908E-01
(PID.TID 0000.0001) %MON dynstat_uvel_min             =  -1.2707782429942E-01
(PID.TID 0000.0001) %MON dynstat_uvel_mean            =   3.4949345043252E-08
(PID.TID 0000.0001) %MON dynstat_uvel_sd              =   4.8045461409267E-02
(PID.TID 0000.0001) %MON dynstat_uvel_del2            =   1.0512627142345E-06
(PID.TID 0000.0001) %MON dynstat_vvel_max             =   1.4436314682929E-01
(PID.TID 0000.0001) %MON dynstat_vvel_min             =  -1.1600103439525E-01
(PID.TID 0000.0001) %MON dynstat_vvel_mean            =  -2.3074226311152E-09
(PID.TID 0000.0001) %MON dynstat_vvel_sd              =   4.5260560850535E-02
(PID.TID 0000.0001) %MON dynstat_vvel_del2            =   1.2775599081077E-06
(PID.TID 0000.0001) %MON dynstat_wvel_max             =   5.8306378312409E-09
(PID.TID 0000.0001) %MON dynstat_wvel_min             =  -7.2075108997524E-09
(PID.TID 0000.0001) %MON dynstat_wvel_mean            =   7.6252307220304E-22
(PID.TID 0000.0001) %MON dynstat_wvel_sd              =   2.8486316669399E-09
(PID.TID 0000.0001) %MON dynstat_wvel_del2            =   3.1051686590472E-14
(PID.TID 0000.0001) %MON dynstat_theta_max            =   2.0000000000000E+01
(PID.TID 0000.0001) %MON dynstat_theta_min            =   2.0000000000000E+01
(PID.TID 0000.0001) %MON dynstat_theta_mean           =   1.9999999999999E+01
(PID.TID 0000.0001) %MON dynstat_theta_sd             =   1.1972645097557E-12
(PID.TID 0000.0001) %MON dynstat_theta_del2           =   0.0000000000000E+00
(PID.TID 0000.0001) %MON dynstat_salt_max             =   3.0000000000000E+01
(PID.TID 0000.0001) %MON dynstat_salt_min             =   3.0000000000000E+01
(PID.TID 0000.0001) %MON dynstat_salt_mean            =   2.9999999999998E+01
(PID.TID 0000.0001) %MON dynstat_salt_sd              =   2.1529444893531E-12
(PID.TID 0000.0001) %MON dynstat_salt_del2            =   0.0000000000000E+00
(PID.TID 0000.0001) %MON trAdv_CFL_u_max              =   3.0498093458048E-02
(PID.TID 0000.0001) %MON trAdv_CFL_v_max              =   3.4645595458323E-02
(PID.TID 0000.0001) %MON trAdv_CFL_w_max              =   1.4800775782603E-09
(PID.TID 0000.0001) %MON advcfl_uvel_max              =   3.0498677831861E-02
(PID.TID 0000.0001) %MON advcfl_vvel_max              =   3.4647155239029E-02
(PID.TID 0000.0001) %MON advcfl_wvel_max              =   3.4596052318811E-09
(PID.TID 0000.0001) %MON advcfl_W_hf_max              =   0.0000000000000E+00
(PID.TID 0000.0001) %MON pe_b_mean                    =   1.3523809184853E-05
(PID.TID 0000.0001) %MON ke_max                       =   1.0461535601724E-02
(PID.TID 0000.0001) %MON ke_mean                      =   2.1686363671305E-03
(PID.TID 0000.0001) %MON ke_vol                       =   7.2529629296391E+15
(PID.TID 0000.0001) %MON vort_r_min                   =  -4.1521607015343E-06
(PID.TID 0000.0001) %MON vort_r_max                   =   3.3623070144449E-06
(PID.TID 0000.0001) %MON vort_a_mean                  =   1.0615000000000E-04
(PID.TID 0000.0001) %MON vort_a_sd                    =   3.6357838331930E-06
(PID.TID 0000.0001) %MON vort_p_mean                  =   1.1210870169429E-04
(PID.TID 0000.0001) %MON vort_p_sd                    =   2.1068404411533E-05
(PID.TID 0000.0001) %MON surfExpan_theta_mean         =   1.5250100372440E-20
(PID.TID 0000.0001) %MON surfExpan_salt_mean          =   2.2881082315387E-20
(PID.TID 0000.0001) // =======================================================
(PID.TID 0000.0001) // End MONITOR dynamic field statistics
(PID.TID 0000.0001) // =======================================================
 cg2d: Sum(rhs),rhsMax =   1.88268323005986E-03  1.30435004097943E-02
 cg2d: Sum(rhs),rhsMax =   1.88296533228532E-03  1.30434901033525E-02
 cg2d: Sum(rhs),rhsMax =   1.88324704920740E-03  1.30434799476675E-02
 cg2d: Sum(rhs),rhsMax =   1.88352841699305E-03  1.30434699449737E-02
 cg2d: Sum(rhs),rhsMax =   1.88380941235328E-03  1.30434600929236E-02
 cg2d: Sum(rhs),rhsMax =   1.88409006218332E-03  1.30434503930037E-02
 cg2d: Sum(rhs),rhsMax =   1.88437030592407E-03  1.30434408436929E-02
 cg2d: Sum(rhs),rhsMax =   1.88465019708132E-03  1.30434314489197E-02
 cg2d: Sum(rhs),rhsMax =   1.88492969840211E-03  1.30434222055830E-02
 cg2d: Sum(rhs),rhsMax =   1.88523062515591E-03  1.30434131097995E-02
 cg2d: Sum(rhs),rhsMax =   1.88553111085841E-03  1.30434041704942E-02
 cg2d: Sum(rhs),rhsMax =   1.88583123143945E-03  1.30433953830033E-02
 cg2d: Sum(rhs),rhsMax =   1.88613085055577E-03  1.30433867494876E-02
 cg2d: Sum(rhs),rhsMax =   1.88643006760991E-03  1.30433782663362E-02
 cg2d: Sum(rhs),rhsMax =   1.88672878077337E-03  1.30433699379724E-02
 cg2d: Sum(rhs),rhsMax =   1.88702696306165E-03  1.30433617632185E-02
 cg2d: Sum(rhs),rhsMax =   1.88732484921250E-03  1.30433537346818E-02
 cg2d: Sum(rhs),rhsMax =   1.88762224496597E-03  1.30433458645534E-02
 cg2d: Sum(rhs),rhsMax =   1.88791916109380E-03  1.30433381436003E-02
 cg2d: Sum(rhs),rhsMax =   1.88821553540563E-03  1.30433305790089E-02
 cg2d: Sum(rhs),rhsMax =   1.88851153952329E-03  1.30433231658091E-02
 cg2d: Sum(rhs),rhsMax =   1.88880707695334E-03  1.30433159049291E-02
 cg2d: Sum(rhs),rhsMax =   1.88910215437502E-03  1.30433087970859E-02
 cg2d: Sum(rhs),rhsMax =   1.88939679222467E-03  1.30433018423519E-02
 cg2d: Sum(rhs),rhsMax =   1.88969083558741E-03  1.30432950419910E-02
 cg2d: Sum(rhs),rhsMax =   1.88998453195176E-03  1.30432883914605E-02
 cg2d: Sum(rhs),rhsMax =   1.89027768994120E-03  1.30432818962777E-02
 cg2d: Sum(rhs),rhsMax =   1.89057049709639E-03  1.30432755527738E-02
 cg2d: Sum(rhs),rhsMax =   1.89086280653799E-03  1.30432693645812E-02
 cg2d: Sum(rhs),rhsMax =   1.89115465191672E-03  1.30432633275870E-02
 cg2d: Sum(rhs),rhsMax =   1.89144601982570E-03  1.30432574459918E-02
 cg2d: Sum(rhs),rhsMax =   1.89173691738553E-03  1.30432517173346E-02
 cg2d: Sum(rhs),rhsMax =   1.89202739534102E-03  1.30432461383480E-02
 cg2d: Sum(rhs),rhsMax =   1.89231744942035E-03  1.30432407166164E-02
 cg2d: Sum(rhs),rhsMax =   1.89260704559373E-03  1.30432354460222E-02
 cg2d: Sum(rhs),rhsMax =   1.89289613763650E-03  1.30432303311808E-02
 cg2d: Sum(rhs),rhsMax =   1.89318483942881E-03  1.30432253679050E-02
 cg2d: Sum(rhs),rhsMax =   1.89347306369465E-03  1.30432205599642E-02
 cg2d: Sum(rhs),rhsMax =   1.89376087488835E-03  1.30432159031298E-02
 cg2d: Sum(rhs),rhsMax =   1.89404805853844E-03  1.30432114023396E-02
 cg2d: Sum(rhs),rhsMax =   1.89433497155176E-03  1.30432070535162E-02
 cg2d: Sum(rhs),rhsMax =   1.89462134637029E-03  1.30432028593089E-02
 cg2d: Sum(rhs),rhsMax =   1.89502164357278E-03  1.30431988268036E-02
 cg2d: Sum(rhs),rhsMax =   1.89542099745593E-03  1.30431949389978E-02
 cg2d: Sum(rhs),rhsMax =   1.89581947870114E-03  1.30431912043871E-02
 cg2d: Sum(rhs),rhsMax =   1.89621706559065E-03  1.30431876246489E-02
 cg2d: Sum(rhs),rhsMax =   1.89661382494308E-03  1.30431841986407E-02
 cg2d: Sum(rhs),rhsMax =   1.89703205909066E-03  1.30431809213832E-02
 cg2d: Sum(rhs),rhsMax =   1.89744933946887E-03  1.30431778056177E-02
 cg2d: Sum(rhs),rhsMax =   1.89786577967360E-03  1.30431748419830E-02
 cg2d: Sum(rhs),rhsMax =   1.89828117926643E-03  1.30431720308136E-02
 cg2d: Sum(rhs),rhsMax =   1.89869563140692E-03  1.30431693737178E-02
 cg2d: Sum(rhs),rhsMax =   1.89910907147014E-03  1.30431668700895E-02
 cg2d: Sum(rhs),rhsMax =   1.89952157056646E-03  1.30431645206631E-02
 cg2d: Sum(rhs),rhsMax =   1.89993306037614E-03  1.30431623246736E-02
 cg2d: Sum(rhs),rhsMax =   1.90034358405873E-03  1.30431602831790E-02
 cg2d: Sum(rhs),rhsMax =   1.90075296064066E-03  1.30431583927669E-02
 cg2d: Sum(rhs),rhsMax =   1.90116157965463E-03  1.30431566613339E-02
 cg2d: Sum(rhs),rhsMax =   1.90156917292726E-03  1.30431550804727E-02
 cg2d: Sum(rhs),rhsMax =   1.90197588236198E-03  1.30431536571423E-02
 cg2d: Sum(rhs),rhsMax =   1.90238149930965E-03  1.30431523841304E-02
 cg2d: Sum(rhs),rhsMax =   1.90278630087452E-03  1.30431512686202E-02
 cg2d: Sum(rhs),rhsMax =   1.90319011741944E-03  1.30431503045260E-02
 cg2d: Sum(rhs),rhsMax =   1.90359300155983E-03  1.30431494972469E-02
 cg2d: Sum(rhs),rhsMax =   1.90399491458098E-03  1.30431488414730E-02
 cg2d: Sum(rhs),rhsMax =   1.90439585245935E-03  1.30431483406158E-02
 cg2d: Sum(rhs),rhsMax =   1.90479589296612E-03  1.30431479938483E-02
 cg2d: Sum(rhs),rhsMax =   1.90519488666928E-03  1.30431478020203E-02
 cg2d: Sum(rhs),rhsMax =   1.90559303474557E-03  1.30431477626886E-02
 cg2d: Sum(rhs),rhsMax =   1.90599016915280E-03  1.30431478775094E-02
 cg2d: Sum(rhs),rhsMax =   1.90638634364573E-03  1.30431481479307E-02
 cg2d: Sum(rhs),rhsMax =   1.90678163607971E-03  1.30431485719599E-02
(PID.TID 0000.0001)      cg2d_init_res =   1.90882088210406E-03
(PID.TID 0000.0001)      cg2d_iters(min,last) =      -1     353
(PID.TID 0000.0001)      cg2d_last_res =   9.29871074251614E-08
(PID.TID 0000.0001) // =======================================================
(PID.TID 0000.0001) // Begin MONITOR dynamic field statistics
(PID.TID 0000.0001) // =======================================================
(PID.TID 0000.0001) %MON time_tsnumber                =                 15696
(PID.TID 0000.0001) %MON time_secondsf                =   1.8835200000000E+07
(PID.TID 0000.0001) %MON dynstat_eta_max              =   1.2881461345917E-01
(PID.TID 0000.0001) %MON dynstat_eta_min              =  -3.2347507287629E-01
(PID.TID 0000.0001) %MON dynstat_eta_mean             =  -1.1837755552300E-07
(PID.TID 0000.0001) %MON dynstat_eta_sd               =   1.1513810997453E-01
(PID.TID 0000.0001) %MON dynstat_eta_del2             =   6.9734955574712E-07
(PID.TID 0000.0001) %MON dynstat_uvel_max             =   1.2290249285965E-01
(PID.TID 0000.0001) %MON dynstat_uvel_min             =  -1.2725347402545E-01
(PID.TID 0000.0001) %MON dynstat_uvel_mean            =   4.5585318022225E-08
(PID.TID 0000.0001) %MON dynstat_uvel_sd              =   4.8101481865952E-02
(PID.TID 0000.0001) %MON dynstat_uvel_del2            =   1.0527656091490E-06
(PID.TID 0000.0001) %MON dynstat_vvel_max             =   1.4482571411645E-01
(PID.TID 0000.0001) %MON dynstat_vvel_min             =  -1.1622236615241E-01
(PID.TID 0000.0001) %MON dynstat_vvel_mean            =  -8.9926002765746E-09
(PID.TID 0000.0001) %MON dynstat_vvel_sd              =   4.5365111291792E-02
(PID.TID 0000.0001) %MON dynstat_vvel_del2            =   1.2775721415728E-06
(PID.TID 0000.0001) %MON dynstat_wvel_max             =   6.0516324825585E-09
(PID.TID 0000.0001) %MON dynstat_wvel_min             =  -7.1898166369647E-09
(PID.TID 0000.0001) %MON dynstat_wvel_mean            =   8.2873921788131E-21
(PID.TID 0000.0001) %MON dynstat_wvel_sd              =   2.8295660984284E-09
(PID.TID 0000.0001) %MON dynstat_wvel_del2            =   3.0942815493940E-14
(PID.TID 0000.0001) %MON dynstat_theta_max            =   2.0000000000000E+01
(PID.TID 0000.0001) %MON dynstat_theta_min            =   2.0000000000000E+01
(PID.TID 0000.0001) %MON dynstat_theta_mean           =   1.9999999999999E+01
(PID.TID 0000.0001) %MON dynstat_theta_sd             =   1.1972645097557E-12
(PID.TID 0000.0001) %MON dynstat_theta_del2           =   0.0000000000000E+00
(PID.TID 0000.0001) %MON dynstat_salt_max             =   3.0000000000000E+01
(PID.TID 0000.0001) %MON dynstat_salt_min             =   3.0000000000000E+01
(PID.TID 0000.0001) %MON dynstat_salt_mean            =   2.9999999999998E+01
(PID.TID 0000.0001) %MON dynstat_salt_sd              =   2.1529444893531E-12
(PID.TID 0000.0001) %MON dynstat_salt_del2            =   0.0000000000000E+00
(PID.TID 0000.0001) %MON trAdv_CFL_u_max              =   3.0540247178414E-02
(PID.TID 0000.0001) %MON trAdv_CFL_v_max              =   3.4756647896595E-02
(PID.TID 0000.0001) %MON trAdv_CFL_w_max              =   1.5386958827495E-09
(PID.TID 0000.0001) %MON advcfl_uvel_max              =   3.0540833766109E-02
(PID.TID 0000.0001) %MON advcfl_vvel_max              =   3.4758171387947E-02
(PID.TID 0000.0001) %MON advcfl_wvel_max              =   3.4511119857430E-09
(PID.TID 0000.0001) %MON advcfl_W_hf_max              =   0.0000000000000E+00
(PID.TID 0000.0001) %MON pe_b_mean                    =   1.3563506162689E-05
(PID.TID 0000.0001) %MON ke_max                       =   1.0528853790059E-02
(PID.TID 0000.0001) %MON ke_mean                      =   2.1760334941271E-03
(PID.TID 0000.0001) %MON ke_vol                       =   7.2529629296391E+15
(PID.TID 0000.0001) %MON vort_r_min                   =  -4.1518801816009E-06
(PID.TID 0000.0001) %MON vort_r_max                   =   3.3618588367466E-06
(PID.TID 0000.0001) %MON vort_a_mean                  =   1.0615000000000E-04
(PID.TID 0000.0001) %MON vort_a_sd                    =   3.6359884158433E-06
(PID.TID 0000.0001) %MON vort_p_mean                  =   1.1210870169429E-04
(PID.TID 0000.0001) %MON vort_p_sd                    =   2.1068478064466E-05
(PID.TID 0000.0001) %MON surfExpan_theta_mean         =   1.6574441380916E-19
(PID.TID 0000.0001) %MON surfExpan_salt_mean          =   2.4861660192750E-19
(PID.TID 0000.0001) // =======================================================
(PID.TID 0000.0001) // End MONITOR dynamic field statistics
(PID.TID 0000.0001) // =======================================================
 cg2d: Sum(rhs),rhsMax =   1.90717593076683E-03  1.30431491478189E-02
 cg2d: Sum(rhs),rhsMax =   1.90759054230047E-03  1.30431498805683E-02
 cg2d: Sum(rhs),rhsMax =   1.90800401599475E-03  1.30431507659142E-02
 cg2d: Sum(rhs),rhsMax =   1.90841650397211E-03  1.30431518063373E-02
 cg2d: Sum(rhs),rhsMax =   1.90882777174539E-03  1.30431530005516E-02
 cg2d: Sum(rhs),rhsMax =   1.90923801722885E-03  1.30431543487057E-02
 cg2d: Sum(rhs),rhsMax =   1.90964694919294E-03  1.30431558511407E-02
 cg2d: Sum(rhs),rhsMax =   1.91005494389315E-03  1.30431575083612E-02
 cg2d: Sum(rhs),rhsMax =   1.91046174153706E-03  1.30431593181158E-02
 cg2d: Sum(rhs),rhsMax =   1.91086751622705E-03  1.30431612813293E-02
 cg2d: Sum(rhs),rhsMax =   1.91127201776744E-03  1.30431633987258E-02
 cg2d: Sum(rhs),rhsMax =   1.91167548309487E-03  1.30431656725829E-02
 cg2d: Sum(rhs),rhsMax =   1.91207765636166E-03  1.30431680992491E-02
 cg2d: Sum(rhs),rhsMax =   1.91247873335693E-03  1.30431706798955E-02
 cg2d: Sum(rhs),rhsMax =   1.91287864911773E-03  1.30431734131560E-02
 cg2d: Sum(rhs),rhsMax =   1.91327734672151E-03  1.30431763023295E-02
 cg2d: Sum(rhs),rhsMax =   1.91367479491956E-03  1.30431793434274E-02
 cg2d: Sum(rhs),rhsMax =   1.91407084797031E-03  1.30431825418071E-02
 cg2d: Sum(rhs),rhsMax =   1.91446573804000E-03  1.30431858914001E-02
 cg2d: Sum(rhs),rhsMax =   1.91485935073203E-03  1.30431893957435E-02
 cg2d: Sum(rhs),rhsMax =   1.91525168122196E-03  1.30431930523353E-02
 cg2d: Sum(rhs),rhsMax =   1.91564268497068E-03  1.30431968654731E-02
 cg2d: Sum(rhs),rhsMax =   1.91603220449797E-03  1.30432008308710E-02
 cg2d: Sum(rhs),rhsMax =   1.91642043177308E-03  1.30432049516242E-02
 cg2d: Sum(rhs),rhsMax =   1.91680719899151E-03  1.30432092237965E-02
 cg2d: Sum(rhs),rhsMax =   1.91719255914425E-03  1.30432136518025E-02
 cg2d: Sum(rhs),rhsMax =   1.91759772908181E-03  1.30432182331426E-02
 cg2d: Sum(rhs),rhsMax =   1.91800113802238E-03  1.30432229668047E-02
 cg2d: Sum(rhs),rhsMax =   1.91840291561321E-03  1.30432278563194E-02
 cg2d: Sum(rhs),rhsMax =   1.91880278013668E-03  1.30432328970857E-02
 cg2d: Sum(rhs),rhsMax =   1.91920087955224E-03  1.30432380928387E-02
 cg2d: Sum(rhs),rhsMax =   1.91959702197640E-03  1.30432434406589E-02
 cg2d: Sum(rhs),rhsMax =   1.91999131715419E-03  1.30432489449587E-02
 cg2d: Sum(rhs),rhsMax =   1.92038367289154E-03  1.30432546011356E-02
 cg2d: Sum(rhs),rhsMax =   1.92077396531798E-03  1.30432604104280E-02
 cg2d: Sum(rhs),rhsMax =   1.92116221340554E-03  1.30432663743617E-02
 cg2d: Sum(rhs),rhsMax =   1.92154843257915E-03  1.30432724930084E-02
 cg2d: Sum(rhs),rhsMax =   1.92193245492000E-03  1.30432787623110E-02
 cg2d: Sum(rhs),rhsMax =   1.92231429628566E-03  1.30432851860487E-02
 cg2d: Sum(rhs),rhsMax =   1.92269371719287E-03  1.30432917609833E-02
 cg2d: Sum(rhs),rhsMax =   1.92309233499745E-03  1.30432984965149E-02
 cg2d: Sum(rhs),rhsMax =   1.92360105141078E-03  1.30433053775367E-02
 cg2d: Sum(rhs),rhsMax =   1.92410540727899E-03  1.30433124139624E-02
 cg2d: Sum(rhs),rhsMax =   1.92460547557009E-03  1.30433196044633E-02
 cg2d: Sum(rhs),rhsMax =   1.92512143350770E-03  1.30433269498714E-02
 cg2d: Sum(rhs),rhsMax =   1.92563267061434E-03  1.30433344443926E-02
 cg2d: Sum(rhs),rhsMax =   1.92613893530049E-03  1.30433420937230E-02
 cg2d: Sum(rhs),rhsMax =   1.92663999975386E-03  1.30433498953941E-02
 cg2d: Sum(rhs),rhsMax =   1.92713596901297E-03  1.30433578517430E-02
 cg2d: Sum(rhs),rhsMax =   1.92762662792519E-03  1.30433659592365E-02
 cg2d: Sum(rhs),rhsMax =   1.92813116265095E-03  1.30433742151619E-02
 cg2d: Sum(rhs),rhsMax =   1.92862984265919E-03  1.30433826284853E-02
 cg2d: Sum(rhs),rhsMax =   1.92912274753011E-03  1.30433911945936E-02
 cg2d: Sum(rhs),rhsMax =   1.92960954601179E-03  1.30433999126924E-02
 cg2d: Sum(rhs),rhsMax =   1.93009025360756E-03  1.30434087845121E-02
 cg2d: Sum(rhs),rhsMax =   1.93058319757676E-03  1.30434178065223E-02
 cg2d: Sum(rhs),rhsMax =   1.93106937717356E-03  1.30434269828814E-02
 cg2d: Sum(rhs),rhsMax =   1.93154886374741E-03  1.30434363123937E-02
 cg2d: Sum(rhs),rhsMax =   1.93202120386305E-03  1.30434457940665E-02
 cg2d: Sum(rhs),rhsMax =   1.93248675975208E-03  1.30434554286384E-02
 cg2d: Sum(rhs),rhsMax =   1.93296330454622E-03  1.30434652109812E-02
 cg2d: Sum(rhs),rhsMax =   1.93343223773379E-03  1.30434751511732E-02
 cg2d: Sum(rhs),rhsMax =   1.93389360272297E-03  1.30434852405071E-02
 cg2d: Sum(rhs),rhsMax =   1.93434707865487E-03  1.30434954838395E-02
 cg2d: Sum(rhs),rhsMax =   1.93479276672725E-03  1.30435058779171E-02
 cg2d: Sum(rhs),rhsMax =   1.93524839585134E-03  1.30435164302530E-02
 cg2d: Sum(rhs),rhsMax =   1.93569556626406E-03  1.30435271297934E-02
 cg2d: Sum(rhs),rhsMax =   1.93613428400557E-03  1.30435379802783E-02
 cg2d: Sum(rhs),rhsMax =   1.93656434234373E-03  1.30435489819693E-02
 cg2d: Sum(rhs),rhsMax =   1.93698573090203E-03  1.30435601366449E-02
 cg2d: Sum(rhs),rhsMax =   1.93739830271559E-03  1.30435714426023E-02
 cg2d: Sum(rhs),rhsMax =   1.93781907674285E-03  1.30435829038881E-02
(PID.TID 0000.0001)      cg2d_init_res =   1.88732011062319E-03
(PID.TID 0000.0001)      cg2d_iters(min,last) =      -1     339
(PID.TID 0000.0001)      cg2d_last_res =   9.85201335760523E-08
(PID.TID 0000.0001) // =======================================================
(PID.TID 0000.0001) // Begin MONITOR dynamic field statistics
(PID.TID 0000.0001) // =======================================================
(PID.TID 0000.0001) %MON time_tsnumber                =                 15768
(PID.TID 0000.0001) %MON time_secondsf                =   1.8921600000000E+07
(PID.TID 0000.0001) %MON dynstat_eta_max              =   1.2893997123368E-01
(PID.TID 0000.0001) %MON dynstat_eta_min              =  -3.2405845332451E-01
(PID.TID 0000.0001) %MON dynstat_eta_mean             =  -1.2030920485231E-07
(PID.TID 0000.0001) %MON dynstat_eta_sd               =   1.1530546719145E-01
(PID.TID 0000.0001) %MON dynstat_eta_del2             =   6.9838490854128E-07
(PID.TID 0000.0001) %MON dynstat_uvel_max             =   1.2299678985206E-01
(PID.TID 0000.0001) %MON dynstat_uvel_min             =  -1.2742976069696E-01
(PID.TID 0000.0001) %MON dynstat_uvel_mean            =   5.4740801181503E-08
(PID.TID 0000.0001) %MON dynstat_uvel_sd              =   4.8158116566261E-02
(PID.TID 0000.0001) %MON dynstat_uvel_del2            =   1.0543642372334E-06
(PID.TID 0000.0001) %MON dynstat_vvel_max             =   1.4527652369190E-01
(PID.TID 0000.0001) %MON dynstat_vvel_min             =  -1.1644331851650E-01
(PID.TID 0000.0001) %MON dynstat_vvel_mean            =  -1.7274473301282E-08
(PID.TID 0000.0001) %MON dynstat_vvel_sd              =   4.5467355359408E-02
(PID.TID 0000.0001) %MON dynstat_vvel_del2            =   1.2775930327859E-06
(PID.TID 0000.0001) %MON dynstat_wvel_max             =   6.3020894955844E-09
(PID.TID 0000.0001) %MON dynstat_wvel_min             =  -7.2173317382112E-09
(PID.TID 0000.0001) %MON dynstat_wvel_mean            =  -2.9446570460164E-23
(PID.TID 0000.0001) %MON dynstat_wvel_sd              =   2.8149758693424E-09
(PID.TID 0000.0001) %MON dynstat_wvel_del2            =   3.0826729543312E-14
(PID.TID 0000.0001) %MON dynstat_theta_max            =   2.0000000000000E+01
(PID.TID 0000.0001) %MON dynstat_theta_min            =   2.0000000000000E+01
(PID.TID 0000.0001) %MON dynstat_theta_mean           =   1.9999999999999E+01
(PID.TID 0000.0001) %MON dynstat_theta_sd             =   1.1972645097557E-12
(PID.TID 0000.0001) %MON dynstat_theta_del2           =   0.0000000000000E+00
(PID.TID 0000.0001) %MON dynstat_salt_max             =   3.0000000000000E+01
(PID.TID 0000.0001) %MON dynstat_salt_min             =   3.0000000000000E+01
(PID.TID 0000.0001) %MON dynstat_salt_mean            =   2.9999999999998E+01
(PID.TID 0000.0001) %MON dynstat_salt_sd              =   2.1529444893531E-12
(PID.TID 0000.0001) %MON dynstat_salt_del2            =   0.0000000000000E+00
(PID.TID 0000.0001) %MON trAdv_CFL_u_max              =   3.0582554015563E-02
(PID.TID 0000.0001) %MON trAdv_CFL_v_max              =   3.4864884027870E-02
(PID.TID 0000.0001) %MON trAdv_CFL_w_max              =   1.6050200510062E-09
(PID.TID 0000.0001) %MON advcfl_uvel_max              =   3.0583142567270E-02
(PID.TID 0000.0001) %MON advcfl_vvel_max              =   3.4866365686056E-02
(PID.TID 0000.0001) %MON advcfl_wvel_max              =   3.4643192343414E-09
(PID.TID 0000.0001) %MON advcfl_W_hf_max              =   0.0000000000000E+00
(PID.TID 0000.0001) %MON pe_b_mean                    =   1.3602964867882E-05
(PID.TID 0000.0001) %MON ke_max                       =   1.0594827419176E-02
(PID.TID 0000.0001) %MON ke_mean                      =   2.1833696790320E-03
(PID.TID 0000.0001) %MON ke_vol                       =   7.2529629296391E+15
(PID.TID 0000.0001) %MON vort_r_min                   =  -4.1518669346111E-06
(PID.TID 0000.0001) %MON vort_r_max                   =   3.3614372405213E-06
(PID.TID 0000.0001) %MON vort_a_mean                  =   1.0615000000000E-04
(PID.TID 0000.0001) %MON vort_a_sd                    =   3.6361938171153E-06
(PID.TID 0000.0001) %MON vort_p_mean                  =   1.1210870169429E-04
(PID.TID 0000.0001) %MON vort_p_sd                    =   2.1068547823371E-05
(PID.TID 0000.0001) %MON surfExpan_theta_mean         =  -6.0535855233698E-22
(PID.TID 0000.0001) %MON surfExpan_salt_mean          =  -9.1096848266051E-22
(PID.TID 0000.0001) // =======================================================
(PID.TID 0000.0001) // End MONITOR dynamic field statistics
(PID.TID 0000.0001) // =======================================================
 cg2d: Sum(rhs),rhsMax =   1.93823047727483E-03  1.30435945126273E-02
 cg2d: Sum(rhs),rhsMax =   1.93863256297882E-03  1.30436062722503E-02
 cg2d: Sum(rhs),rhsMax =   1.93902521527572E-03  1.30436181837894E-02
 cg2d: Sum(rhs),rhsMax =   1.93940840897896E-03  1.30436302460415E-02
 cg2d: Sum(rhs),rhsMax =   1.93979861761376E-03  1.30436424687436E-02
 cg2d: Sum(rhs),rhsMax =   1.94017886173675E-03  1.30436548322884E-02
 cg2d: Sum(rhs),rhsMax =   1.94054917713207E-03  1.30436673490316E-02
 cg2d: Sum(rhs),rhsMax =   1.94090941926283E-03  1.30436800148220E-02
 cg2d: Sum(rhs),rhsMax =   1.94125977447065E-03  1.30436928335724E-02
 cg2d: Sum(rhs),rhsMax =   1.94161626681289E-03  1.30437058012528E-02
 cg2d: Sum(rhs),rhsMax =   1.94196234084658E-03  1.30437189204262E-02
 cg2d: Sum(rhs),rhsMax =   1.94229813579438E-03  1.30437321890857E-02
 cg2d: Sum(rhs),rhsMax =   1.94262359778487E-03  1.30437456098876E-02
 cg2d: Sum(rhs),rhsMax =   1.94293879718116E-03  1.30437591793868E-02
 cg2d: Sum(rhs),rhsMax =   1.94324385105151E-03  1.30437729007647E-02
 cg2d: Sum(rhs),rhsMax =   1.94353871621919E-03  1.30437867700587E-02
 cg2d: Sum(rhs),rhsMax =   1.94383812856334E-03  1.30438007929915E-02
 cg2d: Sum(rhs),rhsMax =   1.94412721952915E-03  1.30438149626744E-02
 cg2d: Sum(rhs),rhsMax =   1.94440608054012E-03  1.30438292850201E-02
 cg2d: Sum(rhs),rhsMax =   1.94467479858985E-03  1.30438437560168E-02
 cg2d: Sum(rhs),rhsMax =   1.94493353525775E-03  1.30438583780346E-02
 cg2d: Sum(rhs),rhsMax =   1.94518240423658E-03  1.30438731474407E-02
 cg2d: Sum(rhs),rhsMax =   1.94543514703598E-03  1.30438880601392E-02
 cg2d: Sum(rhs),rhsMax =   1.94567794408131E-03  1.30439031292078E-02
 cg2d: Sum(rhs),rhsMax =   1.94591109840394E-03  1.30439183480678E-02
 cg2d: Sum(rhs),rhsMax =   1.94613465096495E-03  1.30439337161976E-02
 cg2d: Sum(rhs),rhsMax =   1.94634886425450E-03  1.30439492342523E-02
 cg2d: Sum(rhs),rhsMax =   1.94656742054387E-03  1.30439649002660E-02
 cg2d: Sum(rhs),rhsMax =   1.94677676387155E-03  1.30439807174835E-02
 cg2d: Sum(rhs),rhsMax =   1.94697718164203E-03  1.30439966817912E-02
 cg2d: Sum(rhs),rhsMax =   1.94716885339278E-03  1.30440127954520E-02
 cg2d: Sum(rhs),rhsMax =   1.94735202447772E-03  1.30440290568971E-02
 cg2d: Sum(rhs),rhsMax =   1.94752699365252E-03  1.30440454676551E-02
 cg2d: Sum(rhs),rhsMax =   1.94769404152258E-03  1.30440620269511E-02
 cg2d: Sum(rhs),rhsMax =   1.94785342223030E-03  1.30440787349129E-02
 cg2d: Sum(rhs),rhsMax =   1.94800542355750E-03  1.30440955904203E-02
 cg2d: Sum(rhs),rhsMax =   1.94815038285256E-03  1.30441125957360E-02
 cg2d: Sum(rhs),rhsMax =   1.94830084336106E-03  1.30441297403414E-02
 cg2d: Sum(rhs),rhsMax =   1.94844463508226E-03  1.30441470445376E-02
 cg2d: Sum(rhs),rhsMax =   1.94858215241066E-03  1.30441644909064E-02
 cg2d: Sum(rhs),rhsMax =   1.94871367869798E-03  1.30441820884526E-02
 cg2d: Sum(rhs),rhsMax =   1.94883958192288E-03  1.30441998303134E-02
 cg2d: Sum(rhs),rhsMax =   1.94896017626347E-03  1.30442177225489E-02
 cg2d: Sum(rhs),rhsMax =   1.94907581497647E-03  1.30442357597864E-02
 cg2d: Sum(rhs),rhsMax =   1.94918693987136E-03  1.30442539469331E-02
 cg2d: Sum(rhs),rhsMax =   1.94929382987359E-03  1.30442722802361E-02
 cg2d: Sum(rhs),rhsMax =   1.94939693377024E-03  1.30442907605273E-02
 cg2d: Sum(rhs),rhsMax =   1.94949658779966E-03  1.30443093864658E-02
 cg2d: Sum(rhs),rhsMax =   1.94959310010903E-03  1.30443281601806E-02
 cg2d: Sum(rhs),rhsMax =   1.94968700683442E-03  1.30443470800415E-02
 cg2d: Sum(rhs),rhsMax =   1.94977855546337E-03  1.30443661470760E-02
 cg2d: Sum(rhs),rhsMax =   1.94986820587063E-03  1.30443853606326E-02
 cg2d: Sum(rhs),rhsMax =   1.94995631326724E-03  1.30444047205189E-02
 cg2d: Sum(rhs),rhsMax =   1.95004325727810E-03  1.30444242262127E-02
 cg2d: Sum(rhs),rhsMax =   1.95012942873969E-03  1.30444438777160E-02
 cg2d: Sum(rhs),rhsMax =   1.95021524012438E-03  1.30444636754507E-02
 cg2d: Sum(rhs),rhsMax =   1.95030104874203E-03  1.30444836201887E-02
 cg2d: Sum(rhs),rhsMax =   1.95038726441650E-03  1.30445037097038E-02
 cg2d: Sum(rhs),rhsMax =   1.95047430817069E-03  1.30445239432739E-02
 cg2d: Sum(rhs),rhsMax =   1.95056254506126E-03  1.30445443232912E-02
 cg2d: Sum(rhs),rhsMax =   1.95065237912973E-03  1.30445648493836E-02
 cg2d: Sum(rhs),rhsMax =   1.95074417648725E-03  1.30445855199398E-02
 cg2d: Sum(rhs),rhsMax =   1.95083829075189E-03  1.30446063346172E-02
 cg2d: Sum(rhs),rhsMax =   1.95093515608045E-03  1.30446272952751E-02
 cg2d: Sum(rhs),rhsMax =   1.95103511890884E-03  1.30446484008880E-02
 cg2d: Sum(rhs),rhsMax =   1.95113858434193E-03  1.30446696505265E-02
 cg2d: Sum(rhs),rhsMax =   1.95124589539616E-03  1.30446910442713E-02
 cg2d: Sum(rhs),rhsMax =   1.95135741289444E-03  1.30447125825586E-02
 cg2d: Sum(rhs),rhsMax =   1.95147346440479E-03  1.30447342655544E-02
 cg2d: Sum(rhs),rhsMax =   1.95159449766784E-03  1.30447560912474E-02
 cg2d: Sum(rhs),rhsMax =   1.95172080899282E-03  1.30447780612242E-02
 cg2d: Sum(rhs),rhsMax =   1.95185278613940E-03  1.30448001753780E-02
(PID.TID 0000.0001)      cg2d_init_res =   1.86384818064715E-03
(PID.TID 0000.0001)      cg2d_iters(min,last) =      -1     333
(PID.TID 0000.0001)      cg2d_last_res =   9.93090148260841E-08
(PID.TID 0000.0001) // =======================================================
(PID.TID 0000.0001) // Begin MONITOR dynamic field statistics
(PID.TID 0000.0001) // =======================================================
(PID.TID 0000.0001) %MON time_tsnumber                =                 15840
(PID.TID 0000.0001) %MON time_secondsf                =   1.9008000000000E+07
(PID.TID 0000.0001) %MON dynstat_eta_max              =   1.2905650209090E-01
(PID.TID 0000.0001) %MON dynstat_eta_min              =  -3.2463237711356E-01
(PID.TID 0000.0001) %MON dynstat_eta_mean             =  -1.2117473358278E-07
(PID.TID 0000.0001) %MON dynstat_eta_sd               =   1.1547183051456E-01
(PID.TID 0000.0001) %MON dynstat_eta_del2             =   6.9942115989839E-07
(PID.TID 0000.0001) %MON dynstat_uvel_max             =   1.2309850267109E-01
(PID.TID 0000.0001) %MON dynstat_uvel_min             =  -1.2760986317673E-01
(PID.TID 0000.0001) %MON dynstat_uvel_mean            =   6.1946153578477E-08
(PID.TID 0000.0001) %MON dynstat_uvel_sd              =   4.8216303015229E-02
(PID.TID 0000.0001) %MON dynstat_uvel_del2            =   1.0560628419019E-06
(PID.TID 0000.0001) %MON dynstat_vvel_max             =   1.4571409231555E-01
(PID.TID 0000.0001) %MON dynstat_vvel_min             =  -1.1666281497780E-01
(PID.TID 0000.0001) %MON dynstat_vvel_mean            =  -2.6848398957762E-08
(PID.TID 0000.0001) %MON dynstat_vvel_sd              =   4.5566483497677E-02
(PID.TID 0000.0001) %MON dynstat_vvel_del2            =   1.2776344553742E-06
(PID.TID 0000.0001) %MON dynstat_wvel_max             =   6.5750472713262E-09
(PID.TID 0000.0001) %MON dynstat_wvel_min             =  -7.2838234622031E-09
(PID.TID 0000.0001) %MON dynstat_wvel_mean            =  -5.3227526327596E-21
(PID.TID 0000.0001) %MON dynstat_wvel_sd              =   2.8047689159506E-09
(PID.TID 0000.0001) %MON dynstat_wvel_del2            =   3.0745036600788E-14
(PID.TID 0000.0001) %MON dynstat_theta_max            =   2.0000000000000E+01
(PID.TID 0000.0001) %MON dynstat_theta_min            =   2.0000000000000E+01
(PID.TID 0000.0001) %MON dynstat_theta_mean           =   1.9999999999999E+01
(PID.TID 0000.0001) %MON dynstat_theta_sd             =   1.1972645097557E-12
(PID.TID 0000.0001) %MON dynstat_theta_del2           =   0.0000000000000E+00
(PID.TID 0000.0001) %MON dynstat_salt_max             =   3.0000000000000E+01
(PID.TID 0000.0001) %MON dynstat_salt_min             =   3.0000000000000E+01
(PID.TID 0000.0001) %MON dynstat_salt_mean            =   2.9999999999998E+01
(PID.TID 0000.0001) %MON dynstat_salt_sd              =   2.1529444893531E-12
(PID.TID 0000.0001) %MON dynstat_salt_del2            =   0.0000000000000E+00
(PID.TID 0000.0001) %MON trAdv_CFL_u_max              =   3.0625756607912E-02
(PID.TID 0000.0001) %MON trAdv_CFL_v_max              =   3.4969946658098E-02
(PID.TID 0000.0001) %MON trAdv_CFL_w_max              =   1.6763309752478E-09
(PID.TID 0000.0001) %MON advcfl_uvel_max              =   3.0626367162416E-02
(PID.TID 0000.0001) %MON advcfl_vvel_max              =   3.4971382155731E-02
(PID.TID 0000.0001) %MON advcfl_wvel_max              =   3.4962352618575E-09
(PID.TID 0000.0001) %MON advcfl_W_hf_max              =   0.0000000000000E+00
(PID.TID 0000.0001) %MON pe_b_mean                    =   1.3642246040814E-05
(PID.TID 0000.0001) %MON ke_max                       =   1.0659182086275E-02
(PID.TID 0000.0001) %MON ke_mean                      =   2.1906525977132E-03
(PID.TID 0000.0001) %MON ke_vol                       =   7.2529629296391E+15
(PID.TID 0000.0001) %MON vort_r_min                   =  -4.1521225656138E-06
(PID.TID 0000.0001) %MON vort_r_max                   =   3.3611365445701E-06
(PID.TID 0000.0001) %MON vort_a_mean                  =   1.0615000000000E-04
(PID.TID 0000.0001) %MON vort_a_sd                    =   3.6364007179813E-06
(PID.TID 0000.0001) %MON vort_p_mean                  =   1.1210870169429E-04
(PID.TID 0000.0001) %MON vort_p_sd                    =   2.1068613220139E-05
(PID.TID 0000.0001) %MON surfExpan_theta_mean         =  -1.0645761840533E-19
(PID.TID 0000.0001) %MON surfExpan_salt_mean          =  -1.5968909525473E-19
(PID.TID 0000.0001) // =======================================================
(PID.TID 0000.0001) // End MONITOR dynamic field statistics
(PID.TID 0000.0001) // =======================================================
 cg2d: Sum(rhs),rhsMax =   1.95199075342727E-03  1.30448224330277E-02
 cg2d: Sum(rhs),rhsMax =   1.95213502827086E-03  1.30448448338757E-02
 cg2d: Sum(rhs),rhsMax =   1.95227305185936E-03  1.30448673859108E-02
 cg2d: Sum(rhs),rhsMax =   1.95241783092095E-03  1.30448900723916E-02
 cg2d: Sum(rhs),rhsMax =   1.95256974828403E-03  1.30449129020574E-02
 cg2d: Sum(rhs),rhsMax =   1.95272900493271E-03  1.30449358752685E-02
 cg2d: Sum(rhs),rhsMax =   1.95289588715551E-03  1.30449589915727E-02
 cg2d: Sum(rhs),rhsMax =   1.95307072193954E-03  1.30449822496436E-02
 cg2d: Sum(rhs),rhsMax =   1.95325382789268E-03  1.30450056490419E-02
 cg2d: Sum(rhs),rhsMax =   1.95344536689527E-03  1.30450291922816E-02
 cg2d: Sum(rhs),rhsMax =   1.95364571518343E-03  1.30450528777276E-02
 cg2d: Sum(rhs),rhsMax =   1.95385506586566E-03  1.30450767051723E-02
 cg2d: Sum(rhs),rhsMax =   1.95407374905939E-03  1.30451006728849E-02
 cg2d: Sum(rhs),rhsMax =   1.95428779061194E-03  1.30451247825124E-02
 cg2d: Sum(rhs),rhsMax =   1.95451121022915E-03  1.30451490352691E-02
 cg2d: Sum(rhs),rhsMax =   1.95474437512280E-03  1.30451734264915E-02
 cg2d: Sum(rhs),rhsMax =   1.95498742013135E-03  1.30451979619124E-02
 cg2d: Sum(rhs),rhsMax =   1.95524057678836E-03  1.30452226351100E-02
 cg2d: Sum(rhs),rhsMax =   1.95550403470039E-03  1.30452474517182E-02
 cg2d: Sum(rhs),rhsMax =   1.95577792768512E-03  1.30452724059453E-02
 cg2d: Sum(rhs),rhsMax =   1.95606254211101E-03  1.30452975038550E-02
 cg2d: Sum(rhs),rhsMax =   1.95634302079740E-03  1.30453227471006E-02
 cg2d: Sum(rhs),rhsMax =   1.95663415003271E-03  1.30453481259766E-02
 cg2d: Sum(rhs),rhsMax =   1.95693617607609E-03  1.30453736408733E-02
 cg2d: Sum(rhs),rhsMax =   1.95724902305094E-03  1.30453992971763E-02
 cg2d: Sum(rhs),rhsMax =   1.95757303517954E-03  1.30454250933487E-02
 cg2d: Sum(rhs),rhsMax =   1.95790830450049E-03  1.30454510281133E-02
 cg2d: Sum(rhs),rhsMax =   1.95825498913187E-03  1.30454771032964E-02
 cg2d: Sum(rhs),rhsMax =   1.95861308887450E-03  1.30455033169629E-02
 cg2d: Sum(rhs),rhsMax =   1.95896651014105E-03  1.30455296683495E-02
 cg2d: Sum(rhs),rhsMax =   1.95933117830102E-03  1.30455561613144E-02
 cg2d: Sum(rhs),rhsMax =   1.95970728785864E-03  1.30455827899755E-02
 cg2d: Sum(rhs),rhsMax =   1.96009483892445E-03  1.30456095587440E-02
 cg2d: Sum(rhs),rhsMax =   1.96049399274002E-03  1.30456364637065E-02
 cg2d: Sum(rhs),rhsMax =   1.96090472564595E-03  1.30456635074259E-02
 cg2d: Sum(rhs),rhsMax =   1.96132725136591E-03  1.30456906884207E-02
 cg2d: Sum(rhs),rhsMax =   1.96176156312694E-03  1.30457180076190E-02
 cg2d: Sum(rhs),rhsMax =   1.96220770895934E-03  1.30457454639466E-02
 cg2d: Sum(rhs),rhsMax =   1.96264750490139E-03  1.30457730584168E-02
 cg2d: Sum(rhs),rhsMax =   1.96309879544282E-03  1.30458007900594E-02
 cg2d: Sum(rhs),rhsMax =   1.96356163134678E-03  1.30458286579309E-02
 cg2d: Sum(rhs),rhsMax =   1.96403602226483E-03  1.30458566617671E-02
 cg2d: Sum(rhs),rhsMax =   1.96452209873469E-03  1.30458848029143E-02
 cg2d: Sum(rhs),rhsMax =   1.96501976455434E-03  1.30459130799966E-02
 cg2d: Sum(rhs),rhsMax =   1.96552915544117E-03  1.30459414927232E-02
 cg2d: Sum(rhs),rhsMax =   1.96603105667341E-03  1.30459700331200E-02
 cg2d: Sum(rhs),rhsMax =   1.96654415730991E-03  1.30459987181182E-02
 cg2d: Sum(rhs),rhsMax =   1.96706864451346E-03  1.30460275381439E-02
 cg2d: Sum(rhs),rhsMax =   1.96760438514117E-03  1.30460564927900E-02
 cg2d: Sum(rhs),rhsMax =   1.96815144696712E-03  1.30460855832616E-02
 cg2d: Sum(rhs),rhsMax =   1.96870974929622E-03  1.30461148078768E-02
 cg2d: Sum(rhs),rhsMax =   1.96927929118536E-03  1.30461441672363E-02
 cg2d: Sum(rhs),rhsMax =   1.96983992726322E-03  1.30461736539987E-02
 cg2d: Sum(rhs),rhsMax =   1.97041142126034E-03  1.30462032838249E-02
 cg2d: Sum(rhs),rhsMax =   1.97099378847307E-03  1.30462330447720E-02
 cg2d: Sum(rhs),rhsMax =   1.97158687754868E-03  1.30462629420676E-02
 cg2d: Sum(rhs),rhsMax =   1.97219075482323E-03  1.30462929701561E-02
 cg2d: Sum(rhs),rhsMax =   1.97280531906035E-03  1.30463231338055E-02
 cg2d: Sum(rhs),rhsMax =   1.97343059541590E-03  1.30463534295915E-02
 cg2d: Sum(rhs),rhsMax =   1.97406650619176E-03  1.30463838602870E-02
 cg2d: Sum(rhs),rhsMax =   1.97469141895833E-03  1.30464144164034E-02
 cg2d: Sum(rhs),rhsMax =   1.97532641054817E-03  1.30464451111216E-02
 cg2d: Sum(rhs),rhsMax =   1.97597165214615E-03  1.30464759376454E-02
 cg2d: Sum(rhs),rhsMax =   1.97662682195544E-03  1.30465068972977E-02
 cg2d: Sum(rhs),rhsMax =   1.97729209832881E-03  1.30465379877243E-02
 cg2d: Sum(rhs),rhsMax =   1.97796732404801E-03  1.30465692105977E-02
 cg2d: Sum(rhs),rhsMax =   1.97865249570345E-03  1.30466005640177E-02
 cg2d: Sum(rhs),rhsMax =   1.97932512259559E-03  1.30466320518889E-02
 cg2d: Sum(rhs),rhsMax =   1.98000720214425E-03  1.30466636682704E-02
 cg2d: Sum(rhs),rhsMax =   1.98069870951669E-03  1.30466954161479E-02
 cg2d: Sum(rhs),rhsMax =   1.98139949508950E-03  1.30467272957744E-02
 cg2d: Sum(rhs),rhsMax =   1.98208710486359E-03  1.30467593072288E-02
(PID.TID 0000.0001)      cg2d_init_res =   1.83959967349670E-03
(PID.TID 0000.0001)      cg2d_iters(min,last) =      -1     343
(PID.TID 0000.0001)      cg2d_last_res =   9.72671482589984E-08
(PID.TID 0000.0001) // =======================================================
(PID.TID 0000.0001) // Begin MONITOR dynamic field statistics
(PID.TID 0000.0001) // =======================================================
(PID.TID 0000.0001) %MON time_tsnumber                =                 15912
(PID.TID 0000.0001) %MON time_secondsf                =   1.9094400000000E+07
(PID.TID 0000.0001) %MON dynstat_eta_max              =   1.2916552185393E-01
(PID.TID 0000.0001) %MON dynstat_eta_min              =  -3.2520471365638E-01
(PID.TID 0000.0001) %MON dynstat_eta_mean             =  -1.2310484958666E-07
(PID.TID 0000.0001) %MON dynstat_eta_sd               =   1.1563747186598E-01
(PID.TID 0000.0001) %MON dynstat_eta_del2             =   7.0045999113632E-07
(PID.TID 0000.0001) %MON dynstat_uvel_max             =   1.2321286732698E-01
(PID.TID 0000.0001) %MON dynstat_uvel_min             =  -1.2779309609012E-01
(PID.TID 0000.0001) %MON dynstat_uvel_mean            =   6.6811547193318E-08
(PID.TID 0000.0001) %MON dynstat_uvel_sd              =   4.8276877442441E-02
(PID.TID 0000.0001) %MON dynstat_uvel_del2            =   1.0578614719565E-06
(PID.TID 0000.0001) %MON dynstat_vvel_max             =   1.4613733010140E-01
(PID.TID 0000.0001) %MON dynstat_vvel_min             =  -1.1687955729942E-01
(PID.TID 0000.0001) %MON dynstat_vvel_mean            =  -3.7339440245726E-08
(PID.TID 0000.0001) %MON dynstat_vvel_sd              =   4.5661814697513E-02
(PID.TID 0000.0001) %MON dynstat_vvel_del2            =   1.2777136052188E-06
(PID.TID 0000.0001) %MON dynstat_wvel_max             =   6.8523980770260E-09
(PID.TID 0000.0001) %MON dynstat_wvel_min             =  -7.3846083879471E-09
(PID.TID 0000.0001) %MON dynstat_wvel_mean            =  -1.1627219901044E-21
(PID.TID 0000.0001) %MON dynstat_wvel_sd              =   2.7981888276644E-09
(PID.TID 0000.0001) %MON dynstat_wvel_del2            =   3.0364549300293E-14
(PID.TID 0000.0001) %MON dynstat_theta_max            =   2.0000000000000E+01
(PID.TID 0000.0001) %MON dynstat_theta_min            =   2.0000000000000E+01
(PID.TID 0000.0001) %MON dynstat_theta_mean           =   1.9999999999999E+01
(PID.TID 0000.0001) %MON dynstat_theta_sd             =   1.1972645097557E-12
(PID.TID 0000.0001) %MON dynstat_theta_del2           =   0.0000000000000E+00
(PID.TID 0000.0001) %MON dynstat_salt_max             =   3.0000000000000E+01
(PID.TID 0000.0001) %MON dynstat_salt_min             =   3.0000000000000E+01
(PID.TID 0000.0001) %MON dynstat_salt_mean            =   2.9999999999998E+01
(PID.TID 0000.0001) %MON dynstat_salt_sd              =   2.1529444893531E-12
(PID.TID 0000.0001) %MON dynstat_salt_del2            =   0.0000000000000E+00
(PID.TID 0000.0001) %MON trAdv_CFL_u_max              =   3.0669732288904E-02
(PID.TID 0000.0001) %MON trAdv_CFL_v_max              =   3.5071572820249E-02
(PID.TID 0000.0001) %MON trAdv_CFL_w_max              =   1.7490137646199E-09
(PID.TID 0000.0001) %MON advcfl_uvel_max              =   3.0670343061629E-02
(PID.TID 0000.0001) %MON advcfl_vvel_max              =   3.5072959224337E-02
(PID.TID 0000.0001) %MON advcfl_wvel_max              =   3.5446120262146E-09
(PID.TID 0000.0001) %MON advcfl_W_hf_max              =   0.0000000000000E+00
(PID.TID 0000.0001) %MON pe_b_mean                    =   1.3681413010205E-05
(PID.TID 0000.0001) %MON ke_max                       =   1.0721695118006E-02
(PID.TID 0000.0001) %MON ke_mean                      =   2.1978908294817E-03
(PID.TID 0000.0001) %MON ke_vol                       =   7.2529629296391E+15
(PID.TID 0000.0001) %MON vort_r_min                   =  -4.1526395542040E-06
(PID.TID 0000.0001) %MON vort_r_max                   =   3.3610730765884E-06
(PID.TID 0000.0001) %MON vort_a_mean                  =   1.0615000000000E-04
(PID.TID 0000.0001) %MON vort_a_sd                    =   3.6366097599703E-06
(PID.TID 0000.0001) %MON vort_p_mean                  =   1.1210870169429E-04
(PID.TID 0000.0001) %MON vort_p_sd                    =   2.1068673997754E-05
(PID.TID 0000.0001) %MON surfExpan_theta_mean         =  -2.3279336610874E-20
(PID.TID 0000.0001) %MON surfExpan_salt_mean          =  -3.4903036608415E-20
(PID.TID 0000.0001) // =======================================================
(PID.TID 0000.0001) // End MONITOR dynamic field statistics
(PID.TID 0000.0001) // =======================================================
 cg2d: Sum(rhs),rhsMax =   1.98278349064837E-03  1.30467914464027E-02
 cg2d: Sum(rhs),rhsMax =   1.98348880078762E-03  1.30468237147719E-02
 cg2d: Sum(rhs),rhsMax =   1.98420262734624E-03  1.30468561132454E-02
 cg2d: Sum(rhs),rhsMax =   1.98492534231272E-03  1.30468886405570E-02
 cg2d: Sum(rhs),rhsMax =   1.98565674006172E-03  1.30469212994516E-02
 cg2d: Sum(rhs),rhsMax =   1.98637247755203E-03  1.30469540926207E-02
 cg2d: Sum(rhs),rhsMax =   1.98709630485386E-03  1.30469870072388E-02
 cg2d: Sum(rhs),rhsMax =   1.98782827730335E-03  1.30470200527773E-02
 cg2d: Sum(rhs),rhsMax =   1.98856822499521E-03  1.30470532247474E-02
 cg2d: Sum(rhs),rhsMax =   1.98931619001540E-03  1.30470865271147E-02
 cg2d: Sum(rhs),rhsMax =   1.99004578997475E-03  1.30471199523652E-02
 cg2d: Sum(rhs),rhsMax =   1.99060399594904E-03  1.30471535107707E-02
 cg2d: Sum(rhs),rhsMax =   1.99116724179634E-03  1.30471871941230E-02
 cg2d: Sum(rhs),rhsMax =   1.99173526402925E-03  1.30472210059292E-02
 cg2d: Sum(rhs),rhsMax =   1.99230816796115E-03  1.30472549436425E-02
 cg2d: Sum(rhs),rhsMax =   1.99285807459718E-03  1.30472890089722E-02
 cg2d: Sum(rhs),rhsMax =   1.99341223119146E-03  1.30473232014514E-02
 cg2d: Sum(rhs),rhsMax =   1.99397088668886E-03  1.30473575183836E-02
 cg2d: Sum(rhs),rhsMax =   1.99453365840214E-03  1.30473919640186E-02
 cg2d: Sum(rhs),rhsMax =   1.99510076607569E-03  1.30474265326662E-02
 cg2d: Sum(rhs),rhsMax =   1.99567194684376E-03  1.30474612290487E-02
 cg2d: Sum(rhs),rhsMax =   1.99624729507360E-03  1.30474960490444E-02
 cg2d: Sum(rhs),rhsMax =   1.99682670945886E-03  1.30475309962522E-02
 cg2d: Sum(rhs),rhsMax =   1.99741024359423E-03  1.30475660679152E-02
 cg2d: Sum(rhs),rhsMax =   1.99799773447951E-03  1.30476012624585E-02
 cg2d: Sum(rhs),rhsMax =   1.99858918400358E-03  1.30476365808123E-02
 cg2d: Sum(rhs),rhsMax =   1.99918449380488E-03  1.30476720257606E-02
 cg2d: Sum(rhs),rhsMax =   1.99978373211888E-03  1.30477075943810E-02
 cg2d: Sum(rhs),rhsMax =   2.00038675778162E-03  1.30477432866680E-02
 cg2d: Sum(rhs),rhsMax =   2.00099363021515E-03  1.30477791010601E-02
 cg2d: Sum(rhs),rhsMax =   2.00160415954524E-03  1.30478150390891E-02
 cg2d: Sum(rhs),rhsMax =   2.00221849743015E-03  1.30478511001056E-02
 cg2d: Sum(rhs),rhsMax =   2.00280756981408E-03  1.30478872834154E-02
 cg2d: Sum(rhs),rhsMax =   2.00339990919832E-03  1.30479235881621E-02
 cg2d: Sum(rhs),rhsMax =   2.00399569305755E-03  1.30479600179230E-02
 cg2d: Sum(rhs),rhsMax =   2.00459474424416E-03  1.30479965680366E-02
 cg2d: Sum(rhs),rhsMax =   2.00519712405928E-03  1.30480332405807E-02
 cg2d: Sum(rhs),rhsMax =   2.00580263434376E-03  1.30480700332176E-02
 cg2d: Sum(rhs),rhsMax =   2.00641127354035E-03  1.30481069468936E-02
 cg2d: Sum(rhs),rhsMax =   2.00702306824332E-03  1.30481439805441E-02
 cg2d: Sum(rhs),rhsMax =   2.00763801899561E-03  1.30481811369938E-02
 cg2d: Sum(rhs),rhsMax =   2.00825600305190E-03  1.30482184117597E-02
 cg2d: Sum(rhs),rhsMax =   2.00887703885479E-03  1.30482558085083E-02
 cg2d: Sum(rhs),rhsMax =   2.00950111552508E-03  1.30482933242166E-02
 cg2d: Sum(rhs),rhsMax =   2.01012814753754E-03  1.30483309604937E-02
 cg2d: Sum(rhs),rhsMax =   2.01075808779915E-03  1.30483687139896E-02
 cg2d: Sum(rhs),rhsMax =   2.01139094500299E-03  1.30484065886083E-02
 cg2d: Sum(rhs),rhsMax =   2.01202661777859E-03  1.30484445798508E-02
 cg2d: Sum(rhs),rhsMax =   2.01266522600817E-03  1.30484826920430E-02
 cg2d: Sum(rhs),rhsMax =   2.01330664626069E-03  1.30485209203719E-02
 cg2d: Sum(rhs),rhsMax =   2.01374906303002E-03  1.30485592593939E-02
 cg2d: Sum(rhs),rhsMax =   2.01419278528210E-03  1.30485977253799E-02
 cg2d: Sum(rhs),rhsMax =   2.01463817469399E-03  1.30486363067027E-02
 cg2d: Sum(rhs),rhsMax =   2.01508483185348E-03  1.30486750067350E-02
 cg2d: Sum(rhs),rhsMax =   2.01553308195857E-03  1.30487138214957E-02
 cg2d: Sum(rhs),rhsMax =   2.01598278575364E-03  1.30487527547493E-02
 cg2d: Sum(rhs),rhsMax =   2.01643396438487E-03  1.30487918030140E-02
 cg2d: Sum(rhs),rhsMax =   2.01688648432212E-03  1.30488309672048E-02
 cg2d: Sum(rhs),rhsMax =   2.01734050592770E-03  1.30488702475253E-02
 cg2d: Sum(rhs),rhsMax =   2.01779584103861E-03  1.30489096447809E-02
 cg2d: Sum(rhs),rhsMax =   2.01825261873281E-03  1.30489491554262E-02
 cg2d: Sum(rhs),rhsMax =   2.01871076137571E-03  1.30489887808273E-02
 cg2d: Sum(rhs),rhsMax =   2.01917025834558E-03  1.30490285210128E-02
 cg2d: Sum(rhs),rhsMax =   2.01963107386465E-03  1.30490683766368E-02
 cg2d: Sum(rhs),rhsMax =   2.02009322048999E-03  1.30491083457648E-02
 cg2d: Sum(rhs),rhsMax =   2.02055667245524E-03  1.30491484273482E-02
 cg2d: Sum(rhs),rhsMax =   2.02102147051397E-03  1.30491886230825E-02
 cg2d: Sum(rhs),rhsMax =   2.02148747157702E-03  1.30492289338450E-02
 cg2d: Sum(rhs),rhsMax =   2.02195481736529E-03  1.30492693551046E-02
 cg2d: Sum(rhs),rhsMax =   2.02242337804817E-03  1.30493098900400E-02
 cg2d: Sum(rhs),rhsMax =   2.02289324381663E-03  1.30493505370914E-02
 cg2d: Sum(rhs),rhsMax =   2.02336431864570E-03  1.30493912973305E-02
(PID.TID 0000.0001)      cg2d_init_res =   1.81588031193563E-03
(PID.TID 0000.0001)      cg2d_iters(min,last) =      -1     358
(PID.TID 0000.0001)      cg2d_last_res =   9.95621343718230E-08
(PID.TID 0000.0001) // =======================================================
(PID.TID 0000.0001) // Begin MONITOR dynamic field statistics
(PID.TID 0000.0001) // =======================================================
(PID.TID 0000.0001) %MON time_tsnumber                =                 15984
(PID.TID 0000.0001) %MON time_secondsf                =   1.9180800000000E+07
(PID.TID 0000.0001) %MON dynstat_eta_max              =   1.2927236131386E-01
(PID.TID 0000.0001) %MON dynstat_eta_min              =  -3.2577359643565E-01
(PID.TID 0000.0001) %MON dynstat_eta_mean             =  -1.2567913336222E-07
(PID.TID 0000.0001) %MON dynstat_eta_sd               =   1.1580265887091E-01
(PID.TID 0000.0001) %MON dynstat_eta_del2             =   7.0150298184712E-07
(PID.TID 0000.0001) %MON dynstat_uvel_max             =   1.2334435181139E-01
(PID.TID 0000.0001) %MON dynstat_uvel_min             =  -1.2797616956923E-01
(PID.TID 0000.0001) %MON dynstat_uvel_mean            =   6.9052588189667E-08
(PID.TID 0000.0001) %MON dynstat_uvel_sd              =   4.8340538348176E-02
(PID.TID 0000.0001) %MON dynstat_uvel_del2            =   1.0597557528853E-06
(PID.TID 0000.0001) %MON dynstat_vvel_max             =   1.4654558523306E-01
(PID.TID 0000.0001) %MON dynstat_vvel_min             =  -1.1709212344314E-01
(PID.TID 0000.0001) %MON dynstat_vvel_mean            =  -4.8324601728175E-08
(PID.TID 0000.0001) %MON dynstat_vvel_sd              =   4.5752826327070E-02
(PID.TID 0000.0001) %MON dynstat_vvel_del2            =   1.2778522429522E-06
(PID.TID 0000.0001) %MON dynstat_wvel_max             =   7.1083472436294E-09
(PID.TID 0000.0001) %MON dynstat_wvel_min             =  -7.5140427751467E-09
(PID.TID 0000.0001) %MON dynstat_wvel_mean            =  -1.2576008731068E-20
(PID.TID 0000.0001) %MON dynstat_wvel_sd              =   2.7939916514673E-09
(PID.TID 0000.0001) %MON dynstat_wvel_del2            =   2.9902946172627E-14
(PID.TID 0000.0001) %MON dynstat_theta_max            =   2.0000000000000E+01
(PID.TID 0000.0001) %MON dynstat_theta_min            =   2.0000000000000E+01
(PID.TID 0000.0001) %MON dynstat_theta_mean           =   1.9999999999999E+01
(PID.TID 0000.0001) %MON dynstat_theta_sd             =   1.1972645097557E-12
(PID.TID 0000.0001) %MON dynstat_theta_del2           =   0.0000000000000E+00
(PID.TID 0000.0001) %MON dynstat_salt_max             =   3.0000000000000E+01
(PID.TID 0000.0001) %MON dynstat_salt_min             =   3.0000000000000E+01
(PID.TID 0000.0001) %MON dynstat_salt_mean            =   2.9999999999998E+01
(PID.TID 0000.0001) %MON dynstat_salt_sd              =   2.1529444893531E-12
(PID.TID 0000.0001) %MON dynstat_salt_del2            =   0.0000000000000E+00
(PID.TID 0000.0001) %MON trAdv_CFL_u_max              =   3.0713671253702E-02
(PID.TID 0000.0001) %MON trAdv_CFL_v_max              =   3.5169604563533E-02
(PID.TID 0000.0001) %MON trAdv_CFL_w_max              =   1.8164145681251E-09
(PID.TID 0000.0001) %MON advcfl_uvel_max              =   3.0714280696614E-02
(PID.TID 0000.0001) %MON advcfl_vvel_max              =   3.5170940455935E-02
(PID.TID 0000.0001) %MON advcfl_wvel_max              =   3.6067405320704E-09
(PID.TID 0000.0001) %MON advcfl_W_hf_max              =   0.0000000000000E+00
(PID.TID 0000.0001) %MON pe_b_mean                    =   1.3720528459373E-05
(PID.TID 0000.0001) %MON ke_max                       =   1.0782204188918E-02
(PID.TID 0000.0001) %MON ke_mean                      =   2.2050935345833E-03
(PID.TID 0000.0001) %MON ke_vol                       =   7.2529629296391E+15
(PID.TID 0000.0001) %MON vort_r_min                   =  -4.1534009159079E-06
(PID.TID 0000.0001) %MON vort_r_max                   =   3.3613800373058E-06
(PID.TID 0000.0001) %MON vort_a_mean                  =   1.0615000000000E-04
(PID.TID 0000.0001) %MON vort_a_sd                    =   3.6368215197184E-06
(PID.TID 0000.0001) %MON vort_p_mean                  =   1.1210870169429E-04
(PID.TID 0000.0001) %MON vort_p_sd                    =   2.1068730128485E-05
(PID.TID 0000.0001) %MON surfExpan_theta_mean         =  -2.5158669310647E-19
(PID.TID 0000.0001) %MON surfExpan_salt_mean          =  -3.7737394352334E-19
(PID.TID 0000.0001) // =======================================================
(PID.TID 0000.0001) // End MONITOR dynamic field statistics
(PID.TID 0000.0001) // =======================================================
 cg2d: Sum(rhs),rhsMax =   2.02383646786343E-03  1.30494321680039E-02
 cg2d: Sum(rhs),rhsMax =   2.02431000983844E-03  1.30494731502247E-02
 cg2d: Sum(rhs),rhsMax =   2.02478473747844E-03  1.30495142435668E-02
 cg2d: Sum(rhs),rhsMax =   2.02522826938260E-03  1.30495554530003E-02
 cg2d: Sum(rhs),rhsMax =   2.02567282455126E-03  1.30495967664571E-02
 cg2d: Sum(rhs),rhsMax =   2.02611852225999E-03  1.30496381933979E-02
 cg2d: Sum(rhs),rhsMax =   2.02656516076271E-03  1.30496797277271E-02
 cg2d: Sum(rhs),rhsMax =   2.02701293243964E-03  1.30497213734199E-02
 cg2d: Sum(rhs),rhsMax =   2.02746161627904E-03  1.30497631261127E-02
 cg2d: Sum(rhs),rhsMax =   2.02791138749569E-03  1.30498049909283E-02
 cg2d: Sum(rhs),rhsMax =   2.02836212188661E-03  1.30498469628850E-02
 cg2d: Sum(rhs),rhsMax =   2.02881371260800E-03  1.30498890418072E-02
 cg2d: Sum(rhs),rhsMax =   2.02926648309157E-03  1.30499312300382E-02
 cg2d: Sum(rhs),rhsMax =   2.02972018093076E-03  1.30499735273243E-02
 cg2d: Sum(rhs),rhsMax =   2.03017492074477E-03  1.30500159306995E-02
 cg2d: Sum(rhs),rhsMax =   2.03063062308064E-03  1.30500584431592E-02
 cg2d: Sum(rhs),rhsMax =   2.03108708555129E-03  1.30501010591197E-02
 cg2d: Sum(rhs),rhsMax =   2.03154469024013E-03  1.30501437863931E-02
 cg2d: Sum(rhs),rhsMax =   2.03200315178937E-03  1.30501866178921E-02
 cg2d: Sum(rhs),rhsMax =   2.03246261502573E-03  1.30502295559081E-02
 cg2d: Sum(rhs),rhsMax =   2.03292300571386E-03  1.30502725980188E-02
 cg2d: Sum(rhs),rhsMax =   2.03338436216144E-03  1.30503157479264E-02
 cg2d: Sum(rhs),rhsMax =   2.03384660864916E-03  1.30503590009515E-02
 cg2d: Sum(rhs),rhsMax =   2.03430980275889E-03  1.30504023604007E-02
 cg2d: Sum(rhs),rhsMax =   2.03477385996722E-03  1.30504458226054E-02
 cg2d: Sum(rhs),rhsMax =   2.03523880551746E-03  1.30504893903757E-02
 cg2d: Sum(rhs),rhsMax =   2.03570463637086E-03  1.30505330607123E-02
 cg2d: Sum(rhs),rhsMax =   2.03617132487846E-03  1.30505768355388E-02
 cg2d: Sum(rhs),rhsMax =   2.03663878521163E-03  1.30506207126848E-02
 cg2d: Sum(rhs),rhsMax =   2.03710720364749E-03  1.30506646928646E-02
 cg2d: Sum(rhs),rhsMax =   2.03757646512643E-03  1.30507087741313E-02
 cg2d: Sum(rhs),rhsMax =   2.03804656431967E-03  1.30507529609950E-02
 cg2d: Sum(rhs),rhsMax =   2.03851755020783E-03  1.30507972482111E-02
 cg2d: Sum(rhs),rhsMax =   2.03898934089895E-03  1.30508416376326E-02
 cg2d: Sum(rhs),rhsMax =   2.03946190378615E-03  1.30508861273673E-02
 cg2d: Sum(rhs),rhsMax =   2.03993538927268E-03  1.30509307199334E-02
 cg2d: Sum(rhs),rhsMax =   2.04040971016326E-03  1.30509754107743E-02
 cg2d: Sum(rhs),rhsMax =   2.04088490461593E-03  1.30510202032964E-02
 cg2d: Sum(rhs),rhsMax =   2.04136083687991E-03  1.30510650940431E-02
 cg2d: Sum(rhs),rhsMax =   2.04183762342009E-03  1.30511100865806E-02
 cg2d: Sum(rhs),rhsMax =   2.04231517611217E-03  1.30511551763756E-02
 cg2d: Sum(rhs),rhsMax =   2.04279362227842E-03  1.30512003678922E-02
 cg2d: Sum(rhs),rhsMax =   2.04327274490867E-03  1.30512456555008E-02
 cg2d: Sum(rhs),rhsMax =   2.04375277153186E-03  1.30512910442985E-02
 cg2d: Sum(rhs),rhsMax =   2.04423335023095E-03  1.30513365277241E-02
 cg2d: Sum(rhs),rhsMax =   2.04471491436935E-03  1.30513821127331E-02
 cg2d: Sum(rhs),rhsMax =   2.04519712876873E-03  1.30514277929728E-02
 cg2d: Sum(rhs),rhsMax =   2.04568026719364E-03  1.30514735715780E-02
 cg2d: Sum(rhs),rhsMax =   2.04616407127819E-03  1.30515194444830E-02
 cg2d: Sum(rhs),rhsMax =   2.04664868935306E-03  1.30515654156900E-02
 cg2d: Sum(rhs),rhsMax =   2.04713402815149E-03  1.30516114805207E-02
 cg2d: Sum(rhs),rhsMax =   2.04762001514859E-03  1.30516576426330E-02
 cg2d: Sum(rhs),rhsMax =   2.04810686232970E-03  1.30517039005298E-02
 cg2d: Sum(rhs),rhsMax =   2.04859419993954E-03  1.30517502531918E-02
 cg2d: Sum(rhs),rhsMax =   2.04908247211024E-03  1.30517966997248E-02
 cg2d: Sum(rhs),rhsMax =   2.04957141771667E-03  1.30518432412655E-02
 cg2d: Sum(rhs),rhsMax =   2.05006119780185E-03  1.30518898772873E-02
 cg2d: Sum(rhs),rhsMax =   2.05055176912521E-03  1.30519366081429E-02
 cg2d: Sum(rhs),rhsMax =   2.05104303603425E-03  1.30519834306881E-02
 cg2d: Sum(rhs),rhsMax =   2.05153506367565E-03  1.30520303460831E-02
 cg2d: Sum(rhs),rhsMax =   2.05202778059350E-03  1.30520773533559E-02
 cg2d: Sum(rhs),rhsMax =   2.05252114963301E-03  1.30521244539221E-02
 cg2d: Sum(rhs),rhsMax =   2.05301531482643E-03  1.30521716470887E-02
 cg2d: Sum(rhs),rhsMax =   2.05351001688666E-03  1.30522189307526E-02
 cg2d: Sum(rhs),rhsMax =   2.05400556674778E-03  1.30522663055188E-02
 cg2d: Sum(rhs),rhsMax =   2.05450175600384E-03  1.30523137708715E-02
 cg2d: Sum(rhs),rhsMax =   2.05499878490368E-03  1.30523613283084E-02
 cg2d: Sum(rhs),rhsMax =   2.05549644542867E-03  1.30524089748721E-02
 cg2d: Sum(rhs),rhsMax =   2.05599484854006E-03  1.30524567120572E-02
 cg2d: Sum(rhs),rhsMax =   2.05649384059704E-03  1.30525045371418E-02
 cg2d: Sum(rhs),rhsMax =   2.05699361149655E-03  1.30525524534666E-02
 cg2d: Sum(rhs),rhsMax =   2.05749402097293E-03  1.30526004576275E-02
(PID.TID 0000.0001)      cg2d_init_res =   1.79392272881806E-03
(PID.TID 0000.0001)      cg2d_iters(min,last) =      -1     359
(PID.TID 0000.0001)      cg2d_last_res =   9.43970081404587E-08
(PID.TID 0000.0001) // =======================================================
(PID.TID 0000.0001) // Begin MONITOR dynamic field statistics
(PID.TID 0000.0001) // =======================================================
(PID.TID 0000.0001) %MON time_tsnumber                =                 16056
(PID.TID 0000.0001) %MON time_secondsf                =   1.9267200000000E+07
(PID.TID 0000.0001) %MON dynstat_eta_max              =   1.2938165933375E-01
(PID.TID 0000.0001) %MON dynstat_eta_min              =  -3.2634181168466E-01
(PID.TID 0000.0001) %MON dynstat_eta_mean             =  -1.2783186682983E-07
(PID.TID 0000.0001) %MON dynstat_eta_sd               =   1.1596764085909E-01
(PID.TID 0000.0001) %MON dynstat_eta_del2             =   7.0255154188247E-07
(PID.TID 0000.0001) %MON dynstat_uvel_max             =   1.2349649633824E-01
(PID.TID 0000.0001) %MON dynstat_uvel_min             =  -1.2815855704123E-01
(PID.TID 0000.0001) %MON dynstat_uvel_mean            =   6.8495687098798E-08
(PID.TID 0000.0001) %MON dynstat_uvel_sd              =   4.8407816191469E-02
(PID.TID 0000.0001) %MON dynstat_uvel_del2            =   1.0617367252731E-06
(PID.TID 0000.0001) %MON dynstat_vvel_max             =   1.4693867127758E-01
(PID.TID 0000.0001) %MON dynstat_vvel_min             =  -1.1729907308800E-01
(PID.TID 0000.0001) %MON dynstat_vvel_mean            =  -5.9342053393015E-08
(PID.TID 0000.0001) %MON dynstat_vvel_sd              =   4.5839176672278E-02
(PID.TID 0000.0001) %MON dynstat_vvel_del2            =   1.2780755722679E-06
(PID.TID 0000.0001) %MON dynstat_wvel_max             =   7.3258969699964E-09
(PID.TID 0000.0001) %MON dynstat_wvel_min             =  -7.6655896753073E-09
(PID.TID 0000.0001) %MON dynstat_wvel_mean            =   1.8904329036875E-20
(PID.TID 0000.0001) %MON dynstat_wvel_sd              =   2.7906940950606E-09
(PID.TID 0000.0001) %MON dynstat_wvel_del2            =   2.9353523187757E-14
(PID.TID 0000.0001) %MON dynstat_theta_max            =   2.0000000000000E+01
(PID.TID 0000.0001) %MON dynstat_theta_min            =   2.0000000000000E+01
(PID.TID 0000.0001) %MON dynstat_theta_mean           =   1.9999999999999E+01
(PID.TID 0000.0001) %MON dynstat_theta_sd             =   1.1972645097557E-12
(PID.TID 0000.0001) %MON dynstat_theta_del2           =   0.0000000000000E+00
(PID.TID 0000.0001) %MON dynstat_salt_max             =   3.0000000000000E+01
(PID.TID 0000.0001) %MON dynstat_salt_min             =   3.0000000000000E+01
(PID.TID 0000.0001) %MON dynstat_salt_mean            =   2.9999999999998E+01
(PID.TID 0000.0001) %MON dynstat_salt_sd              =   2.1529444893531E-12
(PID.TID 0000.0001) %MON dynstat_salt_del2            =   0.0000000000000E+00
(PID.TID 0000.0001) %MON trAdv_CFL_u_max              =   3.0757447527047E-02
(PID.TID 0000.0001) %MON trAdv_CFL_v_max              =   3.5263995567472E-02
(PID.TID 0000.0001) %MON trAdv_CFL_w_max              =   1.8740363202231E-09
(PID.TID 0000.0001) %MON advcfl_uvel_max              =   3.0758053689895E-02
(PID.TID 0000.0001) %MON advcfl_vvel_max              =   3.5265281106619E-02
(PID.TID 0000.0001) %MON advcfl_wvel_max              =   3.6794830441475E-09
(PID.TID 0000.0001) %MON advcfl_W_hf_max              =   0.0000000000000E+00
(PID.TID 0000.0001) %MON pe_b_mean                    =   1.3759651093865E-05
(PID.TID 0000.0001) %MON ke_max                       =   1.0840613461196E-02
(PID.TID 0000.0001) %MON ke_mean                      =   2.2122700949389E-03
(PID.TID 0000.0001) %MON ke_vol                       =   7.2529629296391E+15
(PID.TID 0000.0001) %MON vort_r_min                   =  -4.1554667806599E-06
(PID.TID 0000.0001) %MON vort_r_max                   =   3.3622009369014E-06
(PID.TID 0000.0001) %MON vort_a_mean                  =   1.0615000000000E-04
(PID.TID 0000.0001) %MON vort_a_sd                    =   3.6370364838445E-06
(PID.TID 0000.0001) %MON vort_p_mean                  =   1.1210870169429E-04
(PID.TID 0000.0001) %MON vort_p_sd                    =   2.1068781820786E-05
(PID.TID 0000.0001) %MON surfExpan_theta_mean         =   3.7799615807032E-19
(PID.TID 0000.0001) %MON surfExpan_salt_mean          =   5.6699761861115E-19
(PID.TID 0000.0001) // =======================================================
(PID.TID 0000.0001) // End MONITOR dynamic field statistics
(PID.TID 0000.0001) // =======================================================
 cg2d: Sum(rhs),rhsMax =   2.05799511714227E-03  1.30526485498425E-02
 cg2d: Sum(rhs),rhsMax =   2.05849691105589E-03  1.30526967298873E-02
 cg2d: Sum(rhs),rhsMax =   2.05899922401786E-03  1.30527449979257E-02
 cg2d: Sum(rhs),rhsMax =   2.05950239995534E-03  1.30527933545399E-02
 cg2d: Sum(rhs),rhsMax =   2.06000608690331E-03  1.30528417973759E-02
 cg2d: Sum(rhs),rhsMax =   2.06051056256718E-03  1.30528903263545E-02
 cg2d: Sum(rhs),rhsMax =   2.06101570985831E-03  1.30529389418572E-02
 cg2d: Sum(rhs),rhsMax =   2.06152141728849E-03  1.30529876435785E-02
 cg2d: Sum(rhs),rhsMax =   2.06202790563377E-03  1.30530364307192E-02
 cg2d: Sum(rhs),rhsMax =   2.06253502967208E-03  1.30530853019773E-02
 cg2d: Sum(rhs),rhsMax =   2.06304286244578E-03  1.30531342600434E-02
 cg2d: Sum(rhs),rhsMax =   2.06355126752121E-03  1.30531833010662E-02
 cg2d: Sum(rhs),rhsMax =   2.06406046899119E-03  1.30532324276129E-02
 cg2d: Sum(rhs),rhsMax =   2.06457007638500E-03  1.30532816361501E-02
 cg2d: Sum(rhs),rhsMax =   2.06508054061167E-03  1.30533309294861E-02
 cg2d: Sum(rhs),rhsMax =   2.06559132437440E-03  1.30533803023049E-02
 cg2d: Sum(rhs),rhsMax =   2.06610299984054E-03  1.30534297632460E-02
 cg2d: Sum(rhs),rhsMax =   2.06661526016092E-03  1.30534793038838E-02
 cg2d: Sum(rhs),rhsMax =   2.06712830155990E-03  1.30535289281028E-02
 cg2d: Sum(rhs),rhsMax =   2.06764200881394E-03  1.30535786320041E-02
 cg2d: Sum(rhs),rhsMax =   2.06815630565480E-03  1.30536284185270E-02
 cg2d: Sum(rhs),rhsMax =   2.06867133113453E-03  1.30536782844161E-02
 cg2d: Sum(rhs),rhsMax =   2.06918662252751E-03  1.30537282322935E-02
 cg2d: Sum(rhs),rhsMax =   2.06970284635637E-03  1.30537782577568E-02
 cg2d: Sum(rhs),rhsMax =   2.07021965867602E-03  1.30538283633794E-02
 cg2d: Sum(rhs),rhsMax =   2.07073720064684E-03  1.30538785491667E-02
 cg2d: Sum(rhs),rhsMax =   2.07125533111495E-03  1.30539288138725E-02
 cg2d: Sum(rhs),rhsMax =   2.07177403933777E-03  1.30539791561997E-02
 cg2d: Sum(rhs),rhsMax =   2.07229339588524E-03  1.30540295784222E-02
 cg2d: Sum(rhs),rhsMax =   2.07281320769103E-03  1.30540800760656E-02
 cg2d: Sum(rhs),rhsMax =   2.07333387343382E-03  1.30541306541764E-02
 cg2d: Sum(rhs),rhsMax =   2.07385504229090E-03  1.30541813075837E-02
 cg2d: Sum(rhs),rhsMax =   2.07437693612117E-03  1.30542320383060E-02
 cg2d: Sum(rhs),rhsMax =   2.07489948703509E-03  1.30542828445174E-02
 cg2d: Sum(rhs),rhsMax =   2.07542257046294E-03  1.30543337274730E-02
 cg2d: Sum(rhs),rhsMax =   2.07594638858893E-03  1.30543846859202E-02
 cg2d: Sum(rhs),rhsMax =   2.07647064424725E-03  1.30544357201130E-02
 cg2d: Sum(rhs),rhsMax =   2.07699568371195E-03  1.30544868289822E-02
 cg2d: Sum(rhs),rhsMax =   2.07752134611317E-03  1.30545380130672E-02
 cg2d: Sum(rhs),rhsMax =   2.07804765620030E-03  1.30545892691402E-02
 cg2d: Sum(rhs),rhsMax =   2.07857454016792E-03  1.30546406000608E-02
 cg2d: Sum(rhs),rhsMax =   2.07910210246743E-03  1.30546920026567E-02
 cg2d: Sum(rhs),rhsMax =   2.07963015728755E-03  1.30547434800339E-02
 cg2d: Sum(rhs),rhsMax =   2.08015896534535E-03  1.30547950271373E-02
 cg2d: Sum(rhs),rhsMax =   2.08068799626528E-03  1.30548466442997E-02
 cg2d: Sum(rhs),rhsMax =   2.08121794286922E-03  1.30548983383599E-02
 cg2d: Sum(rhs),rhsMax =   2.08174846447145E-03  1.30549501042700E-02
 cg2d: Sum(rhs),rhsMax =   2.08227976529951E-03  1.30550019387738E-02
 cg2d: Sum(rhs),rhsMax =   2.08281150432717E-03  1.30550538451680E-02
 cg2d: Sum(rhs),rhsMax =   2.08334399686384E-03  1.30551058195756E-02
 cg2d: Sum(rhs),rhsMax =   2.08387682720376E-03  1.30551578656079E-02
 cg2d: Sum(rhs),rhsMax =   2.08441052122686E-03  1.30552099777860E-02
 cg2d: Sum(rhs),rhsMax =   2.08494479366720E-03  1.30552621596278E-02
 cg2d: Sum(rhs),rhsMax =   2.08547977846237E-03  1.30553144115054E-02
 cg2d: Sum(rhs),rhsMax =   2.08601510402124E-03  1.30553667313836E-02
 cg2d: Sum(rhs),rhsMax =   2.08655121778390E-03  1.30554191195076E-02
 cg2d: Sum(rhs),rhsMax =   2.08708791981582E-03  1.30554715761797E-02
 cg2d: Sum(rhs),rhsMax =   2.08762523308181E-03  1.30555240976826E-02
 cg2d: Sum(rhs),rhsMax =   2.08816309254202E-03  1.30555766878143E-02
 cg2d: Sum(rhs),rhsMax =   2.08870167400044E-03  1.30556293402573E-02
 cg2d: Sum(rhs),rhsMax =   2.08924081271439E-03  1.30556820608805E-02
 cg2d: Sum(rhs),rhsMax =   2.08978059547297E-03  1.30557348450982E-02
 cg2d: Sum(rhs),rhsMax =   2.09032098882120E-03  1.30557876960708E-02
 cg2d: Sum(rhs),rhsMax =   2.09086197701161E-03  1.30558406117501E-02
 cg2d: Sum(rhs),rhsMax =   2.09140347658169E-03  1.30558935937559E-02
 cg2d: Sum(rhs),rhsMax =   2.09194569562461E-03  1.30559466356842E-02
 cg2d: Sum(rhs),rhsMax =   2.09248850431672E-03  1.30559997431507E-02
 cg2d: Sum(rhs),rhsMax =   2.09303197578847E-03  1.30560529113990E-02
 cg2d: Sum(rhs),rhsMax =   2.09357603015735E-03  1.30561061447607E-02
 cg2d: Sum(rhs),rhsMax =   2.09412076769378E-03  1.30561594382113E-02
 cg2d: Sum(rhs),rhsMax =   2.09466604970484E-03  1.30562127959528E-02
 cg2d: Sum(rhs),rhsMax =   2.09521198426458E-03  1.30562662115587E-02
(PID.TID 0000.0001)      cg2d_init_res =   1.77471164757365E-03
(PID.TID 0000.0001)      cg2d_iters(min,last) =      -1     359
(PID.TID 0000.0001)      cg2d_last_res =   9.22965242308695E-08
(PID.TID 0000.0001) // =======================================================
(PID.TID 0000.0001) // Begin MONITOR dynamic field statistics
(PID.TID 0000.0001) // =======================================================
(PID.TID 0000.0001) %MON time_tsnumber                =                 16128
(PID.TID 0000.0001) %MON time_secondsf                =   1.9353600000000E+07
(PID.TID 0000.0001) %MON dynstat_eta_max              =   1.2949225559293E-01
(PID.TID 0000.0001) %MON dynstat_eta_min              =  -3.2691214149864E-01
(PID.TID 0000.0001) %MON dynstat_eta_mean             =  -1.3021412662575E-07
(PID.TID 0000.0001) %MON dynstat_eta_sd               =   1.1613263544923E-01
(PID.TID 0000.0001) %MON dynstat_eta_del2             =   7.0360684043228E-07
(PID.TID 0000.0001) %MON dynstat_uvel_max             =   1.2367179732056E-01
(PID.TID 0000.0001) %MON dynstat_uvel_min             =  -1.2833961808203E-01
(PID.TID 0000.0001) %MON dynstat_uvel_mean            =   6.5091896242277E-08
(PID.TID 0000.0001) %MON dynstat_uvel_sd              =   4.8479050436686E-02
(PID.TID 0000.0001) %MON dynstat_uvel_del2            =   1.0637907861727E-06
(PID.TID 0000.0001) %MON dynstat_vvel_max             =   1.4731687600513E-01
(PID.TID 0000.0001) %MON dynstat_vvel_min             =  -1.1749905435044E-01
(PID.TID 0000.0001) %MON dynstat_vvel_mean            =  -6.9917021227032E-08
(PID.TID 0000.0001) %MON dynstat_vvel_sd              =   4.5920719478522E-02
(PID.TID 0000.0001) %MON dynstat_vvel_del2            =   1.2784107636530E-06
(PID.TID 0000.0001) %MON dynstat_wvel_max             =   7.4850634345785E-09
(PID.TID 0000.0001) %MON dynstat_wvel_min             =  -7.8284748620354E-09
(PID.TID 0000.0001) %MON dynstat_wvel_mean            =   9.7971102430241E-22
(PID.TID 0000.0001) %MON dynstat_wvel_sd              =   2.7868385037173E-09
(PID.TID 0000.0001) %MON dynstat_wvel_del2            =   2.8915339970356E-14
(PID.TID 0000.0001) %MON dynstat_theta_max            =   2.0000000000000E+01
(PID.TID 0000.0001) %MON dynstat_theta_min            =   2.0000000000000E+01
(PID.TID 0000.0001) %MON dynstat_theta_mean           =   1.9999999999999E+01
(PID.TID 0000.0001) %MON dynstat_theta_sd             =   1.1972645097557E-12
(PID.TID 0000.0001) %MON dynstat_theta_del2           =   0.0000000000000E+00
(PID.TID 0000.0001) %MON dynstat_salt_max             =   3.0000000000000E+01
(PID.TID 0000.0001) %MON dynstat_salt_min             =   3.0000000000000E+01
(PID.TID 0000.0001) %MON dynstat_salt_mean            =   2.9999999999998E+01
(PID.TID 0000.0001) %MON dynstat_salt_sd              =   2.1529444893531E-12
(PID.TID 0000.0001) %MON dynstat_salt_del2            =   0.0000000000000E+00
(PID.TID 0000.0001) %MON trAdv_CFL_u_max              =   3.0800907761776E-02
(PID.TID 0000.0001) %MON trAdv_CFL_v_max              =   3.5354813322879E-02
(PID.TID 0000.0001) %MON trAdv_CFL_w_max              =   1.9167461676518E-09
(PID.TID 0000.0001) %MON advcfl_uvel_max              =   3.0801508339688E-02
(PID.TID 0000.0001) %MON advcfl_vvel_max              =   3.5356050241232E-02
(PID.TID 0000.0001) %MON advcfl_wvel_max              =   3.7576679337770E-09
(PID.TID 0000.0001) %MON advcfl_W_hf_max              =   0.0000000000000E+00
(PID.TID 0000.0001) %MON pe_b_mean                    =   1.3798832420719E-05
(PID.TID 0000.0001) %MON ke_max                       =   1.0896897079475E-02
(PID.TID 0000.0001) %MON ke_mean                      =   2.2194297320845E-03
(PID.TID 0000.0001) %MON ke_vol                       =   7.2529629296391E+15
(PID.TID 0000.0001) %MON vort_r_min                   =  -4.1653634870586E-06
(PID.TID 0000.0001) %MON vort_r_max                   =   3.3636819675548E-06
(PID.TID 0000.0001) %MON vort_a_mean                  =   1.0615000000000E-04
(PID.TID 0000.0001) %MON vort_a_sd                    =   3.6372550254835E-06
(PID.TID 0000.0001) %MON vort_p_mean                  =   1.1210870169429E-04
(PID.TID 0000.0001) %MON vort_p_sd                    =   2.1068829514444E-05
(PID.TID 0000.0001) %MON surfExpan_theta_mean         =   1.9514451085748E-20
(PID.TID 0000.0001) %MON surfExpan_salt_mean          =   2.9234414112490E-20
(PID.TID 0000.0001) // =======================================================
(PID.TID 0000.0001) // End MONITOR dynamic field statistics
(PID.TID 0000.0001) // =======================================================
 cg2d: Sum(rhs),rhsMax =   2.09575822776259E-03  1.30563196893036E-02
 cg2d: Sum(rhs),rhsMax =   2.09630536430094E-03  1.30563732271162E-02
 cg2d: Sum(rhs),rhsMax =   2.09685307532210E-03  1.30564268268203E-02
 cg2d: Sum(rhs),rhsMax =   2.09740147940708E-03  1.30564804849003E-02
 cg2d: Sum(rhs),rhsMax =   2.09795042655622E-03  1.30565342039473E-02
 cg2d: Sum(rhs),rhsMax =   2.09850003799491E-03  1.30565879801903E-02
 cg2d: Sum(rhs),rhsMax =   2.09905024135851E-03  1.30566418159694E-02
 cg2d: Sum(rhs),rhsMax =   2.09960091070128E-03  1.30566957086525E-02
 cg2d: Sum(rhs),rhsMax =   2.10015232394401E-03  1.30567496589389E-02
 cg2d: Sum(rhs),rhsMax =   2.10070439220985E-03  1.30568036649132E-02
 cg2d: Sum(rhs),rhsMax =   2.10125707761519E-03  1.30568577314621E-02
 cg2d: Sum(rhs),rhsMax =   2.10181027115477E-03  1.30569118521989E-02
 cg2d: Sum(rhs),rhsMax =   2.10236418209036E-03  1.30569660299241E-02
 cg2d: Sum(rhs),rhsMax =   2.10291872471208E-03  1.30570202608011E-02
 cg2d: Sum(rhs),rhsMax =   2.10347387504164E-03  1.30570745502161E-02
 cg2d: Sum(rhs),rhsMax =   2.10402950041317E-03  1.30571288931098E-02
 cg2d: Sum(rhs),rhsMax =   2.10458587924807E-03  1.30571832900845E-02
 cg2d: Sum(rhs),rhsMax =   2.10514287052563E-03  1.30572377387927E-02
 cg2d: Sum(rhs),rhsMax =   2.10570051419578E-03  1.30572922450438E-02
 cg2d: Sum(rhs),rhsMax =   2.10625874164528E-03  1.30573468014025E-02
 cg2d: Sum(rhs),rhsMax =   2.10681757699728E-03  1.30574014122500E-02
 cg2d: Sum(rhs),rhsMax =   2.10737698714908E-03  1.30574560724472E-02
 cg2d: Sum(rhs),rhsMax =   2.10793695958433E-03  1.30575107868858E-02
 cg2d: Sum(rhs),rhsMax =   2.10849765537241E-03  1.30575655519515E-02
 cg2d: Sum(rhs),rhsMax =   2.10905890494054E-03  1.30576203697914E-02
 cg2d: Sum(rhs),rhsMax =   2.10962087137580E-03  1.30576752359310E-02
 cg2d: Sum(rhs),rhsMax =   2.11018336086803E-03  1.30577301534425E-02
 cg2d: Sum(rhs),rhsMax =   2.11074656408552E-03  1.30577851203356E-02
 cg2d: Sum(rhs),rhsMax =   2.11131038649433E-03  1.30578401366041E-02
 cg2d: Sum(rhs),rhsMax =   2.11187478341719E-03  1.30578952007342E-02
 cg2d: Sum(rhs),rhsMax =   2.11243988596945E-03  1.30579503136520E-02
 cg2d: Sum(rhs),rhsMax =   2.11300553269709E-03  1.30580054725908E-02
 cg2d: Sum(rhs),rhsMax =   2.11357188560512E-03  1.30580606813203E-02
 cg2d: Sum(rhs),rhsMax =   2.11413888018306E-03  1.30581159346077E-02
 cg2d: Sum(rhs),rhsMax =   2.11470649537737E-03  1.30581712378757E-02
 cg2d: Sum(rhs),rhsMax =   2.11527467309213E-03  1.30582265828975E-02
 cg2d: Sum(rhs),rhsMax =   2.11584352051611E-03  1.30582819804630E-02
 cg2d: Sum(rhs),rhsMax =   2.11641292972181E-03  1.30583374221399E-02
 cg2d: Sum(rhs),rhsMax =   2.11698299170687E-03  1.30583929066928E-02
 cg2d: Sum(rhs),rhsMax =   2.11755373291860E-03  1.30584484337154E-02
 cg2d: Sum(rhs),rhsMax =   2.11812502048228E-03  1.30585040076399E-02
 cg2d: Sum(rhs),rhsMax =   2.11869701541338E-03  1.30585596230112E-02
 cg2d: Sum(rhs),rhsMax =   2.11926937182402E-03  1.30586152827457E-02
 cg2d: Sum(rhs),rhsMax =   2.11984255533192E-03  1.30586709842386E-02
 cg2d: Sum(rhs),rhsMax =   2.12041643541098E-03  1.30587267318565E-02
 cg2d: Sum(rhs),rhsMax =   2.12099068624714E-03  1.30587825197430E-02
 cg2d: Sum(rhs),rhsMax =   2.12156586378969E-03  1.30588383491973E-02
 cg2d: Sum(rhs),rhsMax =   2.12214161462689E-03  1.30588942163905E-02
 cg2d: Sum(rhs),rhsMax =   2.12271812856950E-03  1.30589501283535E-02
 cg2d: Sum(rhs),rhsMax =   2.12329515978774E-03  1.30590060772486E-02
 cg2d: Sum(rhs),rhsMax =   2.12387292283731E-03  1.30590620695079E-02
 cg2d: Sum(rhs),rhsMax =   2.12445111387599E-03  1.30591180982465E-02
 cg2d: Sum(rhs),rhsMax =   2.12503013106107E-03  1.30591741672317E-02
 cg2d: Sum(rhs),rhsMax =   2.12560965198360E-03  1.30592302711947E-02
 cg2d: Sum(rhs),rhsMax =   2.12618998281754E-03  1.30592864185299E-02
 cg2d: Sum(rhs),rhsMax =   2.12677083311909E-03  1.30593426001291E-02
 cg2d: Sum(rhs),rhsMax =   2.12735243296494E-03  1.30593988210536E-02
 cg2d: Sum(rhs),rhsMax =   2.12793457614468E-03  1.30594550758874E-02
 cg2d: Sum(rhs),rhsMax =   2.12851746016787E-03  1.30595113694262E-02
 cg2d: Sum(rhs),rhsMax =   2.12910079843289E-03  1.30595676962731E-02
 cg2d: Sum(rhs),rhsMax =   2.12968491461687E-03  1.30596240603808E-02
 cg2d: Sum(rhs),rhsMax =   2.13026962495838E-03  1.30596804567229E-02
 cg2d: Sum(rhs),rhsMax =   2.13085500841863E-03  1.30597368913905E-02
 cg2d: Sum(rhs),rhsMax =   2.13144095136614E-03  1.30597933575513E-02
 cg2d: Sum(rhs),rhsMax =   2.13202741196379E-03  1.30598498576678E-02
 cg2d: Sum(rhs),rhsMax =   2.13261474393397E-03  1.30599063909581E-02
 cg2d: Sum(rhs),rhsMax =   2.13320254656402E-03  1.30599629578730E-02
 cg2d: Sum(rhs),rhsMax =   2.13379116247864E-03  1.30600195555852E-02
 cg2d: Sum(rhs),rhsMax =   2.13438042737746E-03  1.30600761870277E-02
 cg2d: Sum(rhs),rhsMax =   2.13497024004671E-03  1.30601328470754E-02
 cg2d: Sum(rhs),rhsMax =   2.13556079361634E-03  1.30601895402144E-02
 cg2d: Sum(rhs),rhsMax =   2.13615194820585E-03  1.30602462609292E-02
(PID.TID 0000.0001)      cg2d_init_res =   1.75884770408012E-03
(PID.TID 0000.0001)      cg2d_iters(min,last) =      -1     359
(PID.TID 0000.0001)      cg2d_last_res =   8.92719198561401E-08
(PID.TID 0000.0001) // =======================================================
(PID.TID 0000.0001) // Begin MONITOR dynamic field statistics
(PID.TID 0000.0001) // =======================================================
(PID.TID 0000.0001) %MON time_tsnumber                =                 16200
(PID.TID 0000.0001) %MON time_secondsf                =   1.9440000000000E+07
(PID.TID 0000.0001) %MON dynstat_eta_max              =   1.2960801765859E-01
(PID.TID 0000.0001) %MON dynstat_eta_min              =  -3.2748724928283E-01
(PID.TID 0000.0001) %MON dynstat_eta_mean             =  -1.3280115687002E-07
(PID.TID 0000.0001) %MON dynstat_eta_sd               =   1.1629781643806E-01
(PID.TID 0000.0001) %MON dynstat_eta_del2             =   7.0466973453384E-07
(PID.TID 0000.0001) %MON dynstat_uvel_max             =   1.2387163911601E-01
(PID.TID 0000.0001) %MON dynstat_uvel_min             =  -1.2851861542968E-01
(PID.TID 0000.0001) %MON dynstat_uvel_mean            =   5.8918931235998E-08
(PID.TID 0000.0001) %MON dynstat_uvel_sd              =   4.8554375004810E-02
(PID.TID 0000.0001) %MON dynstat_uvel_del2            =   1.0658997999418E-06
(PID.TID 0000.0001) %MON dynstat_vvel_max             =   1.4768095103167E-01
(PID.TID 0000.0001) %MON dynstat_vvel_min             =  -1.1769090612015E-01
(PID.TID 0000.0001) %MON dynstat_vvel_mean            =  -7.9581355822689E-08
(PID.TID 0000.0001) %MON dynstat_vvel_sd              =   4.5997509955964E-02
(PID.TID 0000.0001) %MON dynstat_vvel_del2            =   1.2788851725660E-06
(PID.TID 0000.0001) %MON dynstat_wvel_max             =   7.5711086113006E-09
(PID.TID 0000.0001) %MON dynstat_wvel_min             =  -7.9968013172038E-09
(PID.TID 0000.0001) %MON dynstat_wvel_mean            =   2.1979290312046E-21
(PID.TID 0000.0001) %MON dynstat_wvel_sd              =   2.7812273689434E-09
(PID.TID 0000.0001) %MON dynstat_wvel_del2            =   2.8526291469296E-14
(PID.TID 0000.0001) %MON dynstat_theta_max            =   2.0000000000000E+01
(PID.TID 0000.0001) %MON dynstat_theta_min            =   2.0000000000000E+01
(PID.TID 0000.0001) %MON dynstat_theta_mean           =   1.9999999999999E+01
(PID.TID 0000.0001) %MON dynstat_theta_sd             =   1.1972645097557E-12
(PID.TID 0000.0001) %MON dynstat_theta_del2           =   0.0000000000000E+00
(PID.TID 0000.0001) %MON dynstat_salt_max             =   3.0000000000000E+01
(PID.TID 0000.0001) %MON dynstat_salt_min             =   3.0000000000000E+01
(PID.TID 0000.0001) %MON dynstat_salt_mean            =   2.9999999999998E+01
(PID.TID 0000.0001) %MON dynstat_salt_sd              =   2.1529444893531E-12
(PID.TID 0000.0001) %MON dynstat_salt_del2            =   0.0000000000000E+00
(PID.TID 0000.0001) %MON trAdv_CFL_u_max              =   3.0843875304112E-02
(PID.TID 0000.0001) %MON trAdv_CFL_v_max              =   3.5442236708673E-02
(PID.TID 0000.0001) %MON trAdv_CFL_w_max              =   1.9408693101301E-09
(PID.TID 0000.0001) %MON advcfl_uvel_max              =   3.0844467703122E-02
(PID.TID 0000.0001) %MON advcfl_vvel_max              =   3.5443428247600E-02
(PID.TID 0000.0001) %MON advcfl_wvel_max              =   3.8384646322578E-09
(PID.TID 0000.0001) %MON advcfl_W_hf_max              =   0.0000000000000E+00
(PID.TID 0000.0001) %MON pe_b_mean                    =   1.3838113812332E-05
(PID.TID 0000.0001) %MON ke_max                       =   1.0951099906436E-02
(PID.TID 0000.0001) %MON ke_mean                      =   2.2265811182091E-03
(PID.TID 0000.0001) %MON ke_vol                       =   7.2529629296391E+15
(PID.TID 0000.0001) %MON vort_r_min                   =  -4.1750722639781E-06
(PID.TID 0000.0001) %MON vort_r_max                   =   3.3659636504049E-06
(PID.TID 0000.0001) %MON vort_a_mean                  =   1.0615000000000E-04
(PID.TID 0000.0001) %MON vort_a_sd                    =   3.6374773826883E-06
(PID.TID 0000.0001) %MON vort_p_mean                  =   1.1210870169429E-04
(PID.TID 0000.0001) %MON vort_p_sd                    =   2.1068873864019E-05
(PID.TID 0000.0001) %MON surfExpan_theta_mean         =   4.3812866320299E-20
(PID.TID 0000.0001) %MON surfExpan_salt_mean          =   6.5743947033342E-20
(PID.TID 0000.0001) // =======================================================
(PID.TID 0000.0001) // End MONITOR dynamic field statistics
(PID.TID 0000.0001) // =======================================================
 cg2d: Sum(rhs),rhsMax =   2.13674383213338E-03  1.30603030157992E-02
 cg2d: Sum(rhs),rhsMax =   2.13733630995012E-03  1.30603597970334E-02
 cg2d: Sum(rhs),rhsMax =   2.13792947043946E-03  1.30604166095893E-02
 cg2d: Sum(rhs),rhsMax =   2.13852314297012E-03  1.30604734482127E-02
 cg2d: Sum(rhs),rhsMax =   2.13911752363023E-03  1.30605303169391E-02
 cg2d: Sum(rhs),rhsMax =   2.13971261843247E-03  1.30605872111485E-02
 cg2d: Sum(rhs),rhsMax =   2.14030832550483E-03  1.30606441358274E-02
 cg2d: Sum(rhs),rhsMax =   2.14090457073607E-03  1.30607010843299E-02
 cg2d: Sum(rhs),rhsMax =   2.14150148046444E-03  1.30607580617509E-02
 cg2d: Sum(rhs),rhsMax =   2.14209915099664E-03  1.30608150630851E-02
 cg2d: Sum(rhs),rhsMax =   2.14269744772830E-03  1.30608720924005E-02
 cg2d: Sum(rhs),rhsMax =   2.14334438370190E-03  1.30609291422864E-02
 cg2d: Sum(rhs),rhsMax =   2.14399193634778E-03  1.30609862184650E-02
 cg2d: Sum(rhs),rhsMax =   2.14464043265603E-03  1.30610433202120E-02
 cg2d: Sum(rhs),rhsMax =   2.14528946324145E-03  1.30611004450610E-02
 cg2d: Sum(rhs),rhsMax =   2.14593932940502E-03  1.30611575944004E-02
 cg2d: Sum(rhs),rhsMax =   2.14658988029583E-03  1.30612147644395E-02
 cg2d: Sum(rhs),rhsMax =   2.14724108931059E-03  1.30612719578476E-02
 cg2d: Sum(rhs),rhsMax =   2.14789294964871E-03  1.30613291733984E-02
 cg2d: Sum(rhs),rhsMax =   2.14854555938129E-03  1.30613864099587E-02
 cg2d: Sum(rhs),rhsMax =   2.14919896699945E-03  1.30614436667678E-02
 cg2d: Sum(rhs),rhsMax =   2.14985297700438E-03  1.30615009453912E-02
 cg2d: Sum(rhs),rhsMax =   2.15050782641390E-03  1.30615582423489E-02
 cg2d: Sum(rhs),rhsMax =   2.15116327787357E-03  1.30616155599548E-02
 cg2d: Sum(rhs),rhsMax =   2.15181948681863E-03  1.30616728961921E-02
 cg2d: Sum(rhs),rhsMax =   2.15247650323084E-03  1.30617302515368E-02
 cg2d: Sum(rhs),rhsMax =   2.15313411441213E-03  1.30617876243726E-02
 cg2d: Sum(rhs),rhsMax =   2.15379250612624E-03  1.30618450154376E-02
 cg2d: Sum(rhs),rhsMax =   2.15445120260566E-03  1.30619024238506E-02
 cg2d: Sum(rhs),rhsMax =   2.15511093148391E-03  1.30619598488305E-02
 cg2d: Sum(rhs),rhsMax =   2.15577135943536E-03  1.30620172893949E-02
 cg2d: Sum(rhs),rhsMax =   2.15643262373796E-03  1.30620747465785E-02
 cg2d: Sum(rhs),rhsMax =   2.15709452080050E-03  1.30621322188049E-02
 cg2d: Sum(rhs),rhsMax =   2.15775715993631E-03  1.30621897065647E-02
 cg2d: Sum(rhs),rhsMax =   2.15842033730171E-03  1.30622472083607E-02
 cg2d: Sum(rhs),rhsMax =   2.15908434158909E-03  1.30623047243196E-02
 cg2d: Sum(rhs),rhsMax =   2.15974875653722E-03  1.30623622536077E-02
 cg2d: Sum(rhs),rhsMax =   2.16041409641306E-03  1.30624197960967E-02
 cg2d: Sum(rhs),rhsMax =   2.16108006297646E-03  1.30624773512539E-02
 cg2d: Sum(rhs),rhsMax =   2.16174684239200E-03  1.30625349178955E-02
 cg2d: Sum(rhs),rhsMax =   2.16241389484991E-03  1.30625924970485E-02
 cg2d: Sum(rhs),rhsMax =   2.16308195326989E-03  1.30626500873024E-02
 cg2d: Sum(rhs),rhsMax =   2.16375066628548E-03  1.30627076872684E-02
 cg2d: Sum(rhs),rhsMax =   2.16442032226728E-03  1.30627652985524E-02
 cg2d: Sum(rhs),rhsMax =   2.16509055359638E-03  1.30628229196183E-02
 cg2d: Sum(rhs),rhsMax =   2.16576149072276E-03  1.30628805493208E-02
 cg2d: Sum(rhs),rhsMax =   2.16643303049318E-03  1.30629381873602E-02
 cg2d: Sum(rhs),rhsMax =   2.16710531618363E-03  1.30629958359953E-02
 cg2d: Sum(rhs),rhsMax =   2.16777826861113E-03  1.30630534916118E-02
 cg2d: Sum(rhs),rhsMax =   2.16845194603726E-03  1.30631111541652E-02
 cg2d: Sum(rhs),rhsMax =   2.16942148957366E-03  1.30631688323379E-02
 cg2d: Sum(rhs),rhsMax =   2.17039197308450E-03  1.30632265079575E-02
 cg2d: Sum(rhs),rhsMax =   2.17136322389773E-03  1.30632841909068E-02
 cg2d: Sum(rhs),rhsMax =   2.17233544102147E-03  1.30633418783079E-02
 cg2d: Sum(rhs),rhsMax =   2.17330849717307E-03  1.30633995713075E-02
 cg2d: Sum(rhs),rhsMax =   2.17428234058619E-03  1.30634572694098E-02
 cg2d: Sum(rhs),rhsMax =   2.17525724183960E-03  1.30635149709346E-02
 cg2d: Sum(rhs),rhsMax =   2.17623306206874E-03  1.30635726757322E-02
 cg2d: Sum(rhs),rhsMax =   2.17720937000849E-03  1.30636303845483E-02
 cg2d: Sum(rhs),rhsMax =   2.17818681493117E-03  1.30636880966115E-02
 cg2d: Sum(rhs),rhsMax =   2.17916516830631E-03  1.30637458109967E-02
 cg2d: Sum(rhs),rhsMax =   2.18014437561098E-03  1.30638035257052E-02
 cg2d: Sum(rhs),rhsMax =   2.18112444583060E-03  1.30638612421739E-02
 cg2d: Sum(rhs),rhsMax =   2.18210543298814E-03  1.30639189597067E-02
 cg2d: Sum(rhs),rhsMax =   2.18308729489845E-03  1.30639766787280E-02
 cg2d: Sum(rhs),rhsMax =   2.18406990378497E-03  1.30640343957031E-02
 cg2d: Sum(rhs),rhsMax =   2.18505333091687E-03  1.30640921133393E-02
 cg2d: Sum(rhs),rhsMax =   2.18603756840915E-03  1.30641498311310E-02
 cg2d: Sum(rhs),rhsMax =   2.18702283783009E-03  1.30642075455054E-02
 cg2d: Sum(rhs),rhsMax =   2.18800886734282E-03  1.30642652572568E-02
 cg2d: Sum(rhs),rhsMax =   2.18899580612949E-03  1.30643229684368E-02
 cg2d: Sum(rhs),rhsMax =   2.18998351415793E-03  1.30643806762633E-02
(PID.TID 0000.0001)      cg2d_init_res =   1.74647412344307E-03
(PID.TID 0000.0001)      cg2d_iters(min,last) =      -1     354
(PID.TID 0000.0001)      cg2d_last_res =   9.79496102210756E-08
(PID.TID 0000.0001) // =======================================================
(PID.TID 0000.0001) // Begin MONITOR dynamic field statistics
(PID.TID 0000.0001) // =======================================================
(PID.TID 0000.0001) %MON time_tsnumber                =                 16272
(PID.TID 0000.0001) %MON time_secondsf                =   1.9526400000000E+07
(PID.TID 0000.0001) %MON dynstat_eta_max              =   1.2973304787337E-01
(PID.TID 0000.0001) %MON dynstat_eta_min              =  -3.2806957191718E-01
(PID.TID 0000.0001) %MON dynstat_eta_mean             =  -1.3621461984763E-07
(PID.TID 0000.0001) %MON dynstat_eta_sd               =   1.1646330381953E-01
(PID.TID 0000.0001) %MON dynstat_eta_del2             =   7.0574069938826E-07
(PID.TID 0000.0001) %MON dynstat_uvel_max             =   1.2409627480244E-01
(PID.TID 0000.0001) %MON dynstat_uvel_min             =  -1.2869473698226E-01
(PID.TID 0000.0001) %MON dynstat_uvel_mean            =   5.0178732748138E-08
(PID.TID 0000.0001) %MON dynstat_uvel_sd              =   4.8633712741285E-02
(PID.TID 0000.0001) %MON dynstat_uvel_del2            =   1.0680414332388E-06
(PID.TID 0000.0001) %MON dynstat_vvel_max             =   1.4803208313367E-01
(PID.TID 0000.0001) %MON dynstat_vvel_min             =  -1.1787375030799E-01
(PID.TID 0000.0001) %MON dynstat_vvel_mean            =  -8.7894611613914E-08
(PID.TID 0000.0001) %MON dynstat_vvel_sd              =   4.6069802176907E-02
(PID.TID 0000.0001) %MON dynstat_vvel_del2            =   1.2795243381717E-06
(PID.TID 0000.0001) %MON dynstat_wvel_max             =   7.5752807408571E-09
(PID.TID 0000.0001) %MON dynstat_wvel_min             =  -8.1613073335029E-09
(PID.TID 0000.0001) %MON dynstat_wvel_mean            =   1.2347261636491E-20
(PID.TID 0000.0001) %MON dynstat_wvel_sd              =   2.7730927463169E-09
(PID.TID 0000.0001) %MON dynstat_wvel_del2            =   2.8615088139187E-14
(PID.TID 0000.0001) %MON dynstat_theta_max            =   2.0000000000000E+01
(PID.TID 0000.0001) %MON dynstat_theta_min            =   2.0000000000000E+01
(PID.TID 0000.0001) %MON dynstat_theta_mean           =   1.9999999999999E+01
(PID.TID 0000.0001) %MON dynstat_theta_sd             =   1.1972645097557E-12
(PID.TID 0000.0001) %MON dynstat_theta_del2           =   0.0000000000000E+00
(PID.TID 0000.0001) %MON dynstat_salt_max             =   3.0000000000000E+01
(PID.TID 0000.0001) %MON dynstat_salt_min             =   3.0000000000000E+01
(PID.TID 0000.0001) %MON dynstat_salt_mean            =   2.9999999999998E+01
(PID.TID 0000.0001) %MON dynstat_salt_sd              =   2.1529444893531E-12
(PID.TID 0000.0001) %MON dynstat_salt_del2            =   0.0000000000000E+00
(PID.TID 0000.0001) %MON trAdv_CFL_u_max              =   3.0886155458248E-02
(PID.TID 0000.0001) %MON trAdv_CFL_v_max              =   3.5526549166832E-02
(PID.TID 0000.0001) %MON trAdv_CFL_w_max              =   1.9438949066915E-09
(PID.TID 0000.0001) %MON advcfl_uvel_max              =   3.0886736875741E-02
(PID.TID 0000.0001) %MON advcfl_vvel_max              =   3.5527699952080E-02
(PID.TID 0000.0001) %MON advcfl_wvel_max              =   3.9174275200814E-09
(PID.TID 0000.0001) %MON advcfl_W_hf_max              =   0.0000000000000E+00
(PID.TID 0000.0001) %MON pe_b_mean                    =   1.3877524054153E-05
(PID.TID 0000.0001) %MON ke_max                       =   1.1003335585092E-02
(PID.TID 0000.0001) %MON ke_mean                      =   2.2337320004994E-03
(PID.TID 0000.0001) %MON ke_vol                       =   7.2529629296391E+15
(PID.TID 0000.0001) %MON vort_r_min                   =  -4.1845476985308E-06
(PID.TID 0000.0001) %MON vort_r_max                   =   3.3691722510040E-06
(PID.TID 0000.0001) %MON vort_a_mean                  =   1.0615000000000E-04
(PID.TID 0000.0001) %MON vort_a_sd                    =   3.6377036399844E-06
(PID.TID 0000.0001) %MON vort_p_mean                  =   1.1210870169429E-04
(PID.TID 0000.0001) %MON vort_p_sd                    =   2.1068915711389E-05
(PID.TID 0000.0001) %MON surfExpan_theta_mean         =   2.4686840097217E-19
(PID.TID 0000.0001) %MON surfExpan_salt_mean          =   3.7026547983895E-19
(PID.TID 0000.0001) // =======================================================
(PID.TID 0000.0001) // End MONITOR dynamic field statistics
(PID.TID 0000.0001) // =======================================================
 cg2d: Sum(rhs),rhsMax =   2.19097202097103E-03  1.30644383807028E-02
 cg2d: Sum(rhs),rhsMax =   2.19196105883177E-03  1.30644960784275E-02
 cg2d: Sum(rhs),rhsMax =   2.19295115933508E-03  1.30645537770383E-02
 cg2d: Sum(rhs),rhsMax =   2.19394205159680E-03  1.30646114678481E-02
 cg2d: Sum(rhs),rhsMax =   2.19493383205786E-03  1.30646691541146E-02
 cg2d: Sum(rhs),rhsMax =   2.19592632149215E-03  1.30647268333336E-02
 cg2d: Sum(rhs),rhsMax =   2.19691966910903E-03  1.30647845079479E-02
 cg2d: Sum(rhs),rhsMax =   2.19791348290487E-03  1.30648421754326E-02
 cg2d: Sum(rhs),rhsMax =   2.19890832317116E-03  1.30648998349443E-02
 cg2d: Sum(rhs),rhsMax =   2.19990375348017E-03  1.30649574875464E-02
 cg2d: Sum(rhs),rhsMax =   2.20090010269978E-03  1.30650151310333E-02
 cg2d: Sum(rhs),rhsMax =   2.20189727586209E-03  1.30650727636091E-02
 cg2d: Sum(rhs),rhsMax =   2.20289521873507E-03  1.30651303914894E-02
 cg2d: Sum(rhs),rhsMax =   2.20389395370502E-03  1.30651880081421E-02
 cg2d: Sum(rhs),rhsMax =   2.20489339405923E-03  1.30652456151938E-02
 cg2d: Sum(rhs),rhsMax =   2.20589363004930E-03  1.30653032099586E-02
 cg2d: Sum(rhs),rhsMax =   2.20689441769855E-03  1.30653607951972E-02
 cg2d: Sum(rhs),rhsMax =   2.20789594733314E-03  1.30654183698202E-02
 cg2d: Sum(rhs),rhsMax =   2.20889827047105E-03  1.30654759300780E-02
 cg2d: Sum(rhs),rhsMax =   2.20990136142292E-03  1.30655334773542E-02
 cg2d: Sum(rhs),rhsMax =   2.21090493945437E-03  1.30655910133387E-02
 cg2d: Sum(rhs),rhsMax =   2.21196835341702E-03  1.30656485327884E-02
 cg2d: Sum(rhs),rhsMax =   2.21303252141844E-03  1.30657060419971E-02
 cg2d: Sum(rhs),rhsMax =   2.21409760914237E-03  1.30657635351155E-02
 cg2d: Sum(rhs),rhsMax =   2.21516309016869E-03  1.30658210124573E-02
 cg2d: Sum(rhs),rhsMax =   2.21622948656916E-03  1.30658784767334E-02
 cg2d: Sum(rhs),rhsMax =   2.21729647908511E-03  1.30659359241723E-02
 cg2d: Sum(rhs),rhsMax =   2.21836399689308E-03  1.30659933572267E-02
 cg2d: Sum(rhs),rhsMax =   2.21943239358211E-03  1.30660507718403E-02
 cg2d: Sum(rhs),rhsMax =   2.22050133127733E-03  1.30661081696101E-02
 cg2d: Sum(rhs),rhsMax =   2.22157108787549E-03  1.30661655488451E-02
 cg2d: Sum(rhs),rhsMax =   2.22264144339964E-03  1.30662229107925E-02
 cg2d: Sum(rhs),rhsMax =   2.22371234694086E-03  1.30662802541836E-02
 cg2d: Sum(rhs),rhsMax =   2.22478405761119E-03  1.30663375770767E-02
 cg2d: Sum(rhs),rhsMax =   2.22585624968787E-03  1.30663948790076E-02
 cg2d: Sum(rhs),rhsMax =   2.22692919738213E-03  1.30664521638785E-02
 cg2d: Sum(rhs),rhsMax =   2.22800257318667E-03  1.30665094280508E-02
 cg2d: Sum(rhs),rhsMax =   2.22907668237605E-03  1.30665666684976E-02
 cg2d: Sum(rhs),rhsMax =   2.23015140123133E-03  1.30666238864051E-02
 cg2d: Sum(rhs),rhsMax =   2.23122665392102E-03  1.30666810858229E-02
 cg2d: Sum(rhs),rhsMax =   2.23230253112391E-03  1.30667382615239E-02
 cg2d: Sum(rhs),rhsMax =   2.23337881799916E-03  1.30667954137714E-02
 cg2d: Sum(rhs),rhsMax =   2.23445588011798E-03  1.30668525416125E-02
 cg2d: Sum(rhs),rhsMax =   2.23553351837807E-03  1.30669096470205E-02
 cg2d: Sum(rhs),rhsMax =   2.23661167437902E-03  1.30669667271778E-02
 cg2d: Sum(rhs),rhsMax =   2.23769028775619E-03  1.30670237822538E-02
 cg2d: Sum(rhs),rhsMax =   2.23876941540927E-03  1.30670808102258E-02
 cg2d: Sum(rhs),rhsMax =   2.23984918667200E-03  1.30671378154128E-02
 cg2d: Sum(rhs),rhsMax =   2.24092949997438E-03  1.30671947920592E-02
 cg2d: Sum(rhs),rhsMax =   2.24201037074709E-03  1.30672517424712E-02
 cg2d: Sum(rhs),rhsMax =   2.24309177063927E-03  1.30673086643564E-02
 cg2d: Sum(rhs),rhsMax =   2.24417363758291E-03  1.30673655594995E-02
 cg2d: Sum(rhs),rhsMax =   2.24525586675278E-03  1.30674224250318E-02
 cg2d: Sum(rhs),rhsMax =   2.24633863384212E-03  1.30674792631465E-02
 cg2d: Sum(rhs),rhsMax =   2.24742184647593E-03  1.30675360710926E-02
 cg2d: Sum(rhs),rhsMax =   2.24850559059075E-03  1.30675928491885E-02
 cg2d: Sum(rhs),rhsMax =   2.24958985705015E-03  1.30676495959270E-02
 cg2d: Sum(rhs),rhsMax =   2.25067430768239E-03  1.30677063127012E-02
 cg2d: Sum(rhs),rhsMax =   2.25175936408666E-03  1.30677629992085E-02
 cg2d: Sum(rhs),rhsMax =   2.25284493765807E-03  1.30678196533472E-02
 cg2d: Sum(rhs),rhsMax =   2.25393091719204E-03  1.30678762729792E-02
 cg2d: Sum(rhs),rhsMax =   2.25501724117458E-03  1.30679328623865E-02
 cg2d: Sum(rhs),rhsMax =   2.25610407437416E-03  1.30679894180966E-02
 cg2d: Sum(rhs),rhsMax =   2.25719122741853E-03  1.30680459395247E-02
 cg2d: Sum(rhs),rhsMax =   2.25827885869782E-03  1.30681024255645E-02
 cg2d: Sum(rhs),rhsMax =   2.25936661439586E-03  1.30681588781571E-02
 cg2d: Sum(rhs),rhsMax =   2.26045488946402E-03  1.30682152972169E-02
 cg2d: Sum(rhs),rhsMax =   2.26154360330003E-03  1.30682716793230E-02
 cg2d: Sum(rhs),rhsMax =   2.26263277494222E-03  1.30683280239259E-02
 cg2d: Sum(rhs),rhsMax =   2.26372227422560E-03  1.30683843326339E-02
 cg2d: Sum(rhs),rhsMax =   2.26481175100966E-03  1.30684406045582E-02
 cg2d: Sum(rhs),rhsMax =   2.26590184278022E-03  1.30684968377584E-02
(PID.TID 0000.0001)      cg2d_init_res =   1.73728019469093E-03
(PID.TID 0000.0001)      cg2d_iters(min,last) =      -1     353
(PID.TID 0000.0001)      cg2d_last_res =   9.40232824567480E-08
(PID.TID 0000.0001) // =======================================================
(PID.TID 0000.0001) // Begin MONITOR dynamic field statistics
(PID.TID 0000.0001) // =======================================================
(PID.TID 0000.0001) %MON time_tsnumber                =                 16344
(PID.TID 0000.0001) %MON time_secondsf                =   1.9612800000000E+07
(PID.TID 0000.0001) %MON dynstat_eta_max              =   1.2987147086656E-01
(PID.TID 0000.0001) %MON dynstat_eta_min              =  -3.2866121754240E-01
(PID.TID 0000.0001) %MON dynstat_eta_mean             =  -1.4098525191071E-07
(PID.TID 0000.0001) %MON dynstat_eta_sd               =   1.1662915647825E-01
(PID.TID 0000.0001) %MON dynstat_eta_del2             =   7.0681976385777E-07
(PID.TID 0000.0001) %MON dynstat_uvel_max             =   1.2434485559885E-01
(PID.TID 0000.0001) %MON dynstat_uvel_min             =  -1.2886712177078E-01
(PID.TID 0000.0001) %MON dynstat_uvel_mean            =   3.9189077775847E-08
(PID.TID 0000.0001) %MON dynstat_uvel_sd              =   4.8716779206792E-02
(PID.TID 0000.0001) %MON dynstat_uvel_del2            =   1.0701897670746E-06
(PID.TID 0000.0001) %MON dynstat_vvel_max             =   1.4837184841082E-01
(PID.TID 0000.0001) %MON dynstat_vvel_min             =  -1.1804706892655E-01
(PID.TID 0000.0001) %MON dynstat_vvel_mean            =  -9.4464233873492E-08
(PID.TID 0000.0001) %MON dynstat_vvel_sd              =   4.6138037920342E-02
(PID.TID 0000.0001) %MON dynstat_vvel_del2            =   1.2803498707132E-06
(PID.TID 0000.0001) %MON dynstat_wvel_max             =   7.4953241762705E-09
(PID.TID 0000.0001) %MON dynstat_wvel_min             =  -8.3191900223028E-09
(PID.TID 0000.0001) %MON dynstat_wvel_mean            =  -1.3677996520768E-20
(PID.TID 0000.0001) %MON dynstat_wvel_sd              =   2.7621816287102E-09
(PID.TID 0000.0001) %MON dynstat_wvel_del2            =   2.8332941696784E-14
(PID.TID 0000.0001) %MON dynstat_theta_max            =   2.0000000000000E+01
(PID.TID 0000.0001) %MON dynstat_theta_min            =   2.0000000000000E+01
(PID.TID 0000.0001) %MON dynstat_theta_mean           =   1.9999999999999E+01
(PID.TID 0000.0001) %MON dynstat_theta_sd             =   1.1972645097557E-12
(PID.TID 0000.0001) %MON dynstat_theta_del2           =   0.0000000000000E+00
(PID.TID 0000.0001) %MON dynstat_salt_max             =   3.0000000000000E+01
(PID.TID 0000.0001) %MON dynstat_salt_min             =   3.0000000000000E+01
(PID.TID 0000.0001) %MON dynstat_salt_mean            =   2.9999999999998E+01
(PID.TID 0000.0001) %MON dynstat_salt_sd              =   2.1529444893531E-12
(PID.TID 0000.0001) %MON dynstat_salt_del2            =   0.0000000000000E+00
(PID.TID 0000.0001) %MON trAdv_CFL_u_max              =   3.0927541708436E-02
(PID.TID 0000.0001) %MON trAdv_CFL_v_max              =   3.5608127756162E-02
(PID.TID 0000.0001) %MON trAdv_CFL_w_max              =   1.9248050294481E-09
(PID.TID 0000.0001) %MON advcfl_uvel_max              =   3.0928109224988E-02
(PID.TID 0000.0001) %MON advcfl_vvel_max              =   3.5609243618597E-02
(PID.TID 0000.0001) %MON advcfl_wvel_max              =   3.9932112107053E-09
(PID.TID 0000.0001) %MON advcfl_W_hf_max              =   0.0000000000000E+00
(PID.TID 0000.0001) %MON pe_b_mean                    =   1.3917077510563E-05
(PID.TID 0000.0001) %MON ke_max                       =   1.1053782058971E-02
(PID.TID 0000.0001) %MON ke_mean                      =   2.2408888550033E-03
(PID.TID 0000.0001) %MON ke_vol                       =   7.2529629296391E+15
(PID.TID 0000.0001) %MON vort_r_min                   =  -4.1937456763388E-06
(PID.TID 0000.0001) %MON vort_r_max                   =   3.3734114110890E-06
(PID.TID 0000.0001) %MON vort_a_mean                  =   1.0615000000000E-04
(PID.TID 0000.0001) %MON vort_a_sd                    =   3.6379337140663E-06
(PID.TID 0000.0001) %MON vort_p_mean                  =   1.1210870169429E-04
(PID.TID 0000.0001) %MON vort_p_sd                    =   2.1068956048790E-05
(PID.TID 0000.0001) %MON surfExpan_theta_mean         =  -2.7373177262812E-19
(PID.TID 0000.0001) %MON surfExpan_salt_mean          =  -4.1063560715624E-19
(PID.TID 0000.0001) // =======================================================
(PID.TID 0000.0001) // End MONITOR dynamic field statistics
(PID.TID 0000.0001) // =======================================================
 cg2d: Sum(rhs),rhsMax =   2.26699222750732E-03  1.30685530323759E-02
 cg2d: Sum(rhs),rhsMax =   2.26808309766954E-03  1.30686091905550E-02
 cg2d: Sum(rhs),rhsMax =   2.26917407107831E-03  1.30686653100486E-02
 cg2d: Sum(rhs),rhsMax =   2.27026547626379E-03  1.30687213876939E-02
 cg2d: Sum(rhs),rhsMax =   2.27135718529679E-03  1.30687774250208E-02
 cg2d: Sum(rhs),rhsMax =   2.27244913693712E-03  1.30688334231755E-02
 cg2d: Sum(rhs),rhsMax =   2.27354134818512E-03  1.30688893804110E-02
 cg2d: Sum(rhs),rhsMax =   2.27463359828871E-03  1.30689452957191E-02
 cg2d: Sum(rhs),rhsMax =   2.27572638002092E-03  1.30690011686026E-02
 cg2d: Sum(rhs),rhsMax =   2.27681931862579E-03  1.30690569993472E-02
 cg2d: Sum(rhs),rhsMax =   2.27791269209344E-03  1.30691127869654E-02
 cg2d: Sum(rhs),rhsMax =   2.27900613600115E-03  1.30691685311408E-02
 cg2d: Sum(rhs),rhsMax =   2.28009998013142E-03  1.30692242311121E-02
 cg2d: Sum(rhs),rhsMax =   2.28119367777044E-03  1.30692798861846E-02
 cg2d: Sum(rhs),rhsMax =   2.28228786489171E-03  1.30693354974828E-02
 cg2d: Sum(rhs),rhsMax =   2.28338216660420E-03  1.30693910637909E-02
 cg2d: Sum(rhs),rhsMax =   2.28447681192363E-03  1.30694465824519E-02
 cg2d: Sum(rhs),rhsMax =   2.28557146238420E-03  1.30695020544586E-02
 cg2d: Sum(rhs),rhsMax =   2.28666632186677E-03  1.30695574810743E-02
 cg2d: Sum(rhs),rhsMax =   2.28776126548142E-03  1.30696128607351E-02
 cg2d: Sum(rhs),rhsMax =   2.28885616486843E-03  1.30696681912681E-02
 cg2d: Sum(rhs),rhsMax =   2.28995148256142E-03  1.30697234732508E-02
 cg2d: Sum(rhs),rhsMax =   2.29111163924296E-03  1.30697787096732E-02
 cg2d: Sum(rhs),rhsMax =   2.29227191303228E-03  1.30698338932112E-02
 cg2d: Sum(rhs),rhsMax =   2.29343258918153E-03  1.30698890294850E-02
 cg2d: Sum(rhs),rhsMax =   2.29459307355669E-03  1.30699441104244E-02
 cg2d: Sum(rhs),rhsMax =   2.29575388691561E-03  1.30699991463996E-02
 cg2d: Sum(rhs),rhsMax =   2.29691468561547E-03  1.30700541260427E-02
 cg2d: Sum(rhs),rhsMax =   2.29807546754712E-03  1.30701090592509E-02
 cg2d: Sum(rhs),rhsMax =   2.29923632113395E-03  1.30701639343409E-02
 cg2d: Sum(rhs),rhsMax =   2.30039699735010E-03  1.30702187612753E-02
 cg2d: Sum(rhs),rhsMax =   2.30155760358361E-03  1.30702735325837E-02
 cg2d: Sum(rhs),rhsMax =   2.30271840031867E-03  1.30703282536663E-02
 cg2d: Sum(rhs),rhsMax =   2.30387923074331E-03  1.30703829138421E-02
 cg2d: Sum(rhs),rhsMax =   2.30558930146178E-03  1.30704375238839E-02
 cg2d: Sum(rhs),rhsMax =   2.30736505545698E-03  1.30704920841056E-02
 cg2d: Sum(rhs),rhsMax =   2.30913973588634E-03  1.30705465799484E-02
 cg2d: Sum(rhs),rhsMax =   2.31091366996680E-03  1.30706010245846E-02
 cg2d: Sum(rhs),rhsMax =   2.31268646408708E-03  1.30706554063534E-02
 cg2d: Sum(rhs),rhsMax =   2.31445835576157E-03  1.30707097389636E-02
 cg2d: Sum(rhs),rhsMax =   2.31622924353090E-03  1.30707640078714E-02
 cg2d: Sum(rhs),rhsMax =   2.31799876983655E-03  1.30708182241125E-02
 cg2d: Sum(rhs),rhsMax =   2.31976753873786E-03  1.30708723759913E-02
 cg2d: Sum(rhs),rhsMax =   2.32153526600339E-03  1.30709264749313E-02
 cg2d: Sum(rhs),rhsMax =   2.32330186462624E-03  1.30709805082309E-02
 cg2d: Sum(rhs),rhsMax =   2.32506750094745E-03  1.30710344875397E-02
 cg2d: Sum(rhs),rhsMax =   2.32683184813637E-03  1.30710884000497E-02
 cg2d: Sum(rhs),rhsMax =   2.32866001928818E-03  1.30711422505383E-02
 cg2d: Sum(rhs),rhsMax =   2.33048688041482E-03  1.30711960445783E-02
 cg2d: Sum(rhs),rhsMax =   2.33231285435268E-03  1.30712497747280E-02
 cg2d: Sum(rhs),rhsMax =   2.33413722257100E-03  1.30713034441985E-02
 cg2d: Sum(rhs),rhsMax =   2.33596056315071E-03  1.30713570491908E-02
 cg2d: Sum(rhs),rhsMax =   2.33778235691854E-03  1.30714105932796E-02
 cg2d: Sum(rhs),rhsMax =   2.33960267420603E-03  1.30714640705132E-02
 cg2d: Sum(rhs),rhsMax =   2.34142203261178E-03  1.30715174876538E-02
 cg2d: Sum(rhs),rhsMax =   2.34324004097705E-03  1.30715708402927E-02
 cg2d: Sum(rhs),rhsMax =   2.34505680020417E-03  1.30716241225497E-02
 cg2d: Sum(rhs),rhsMax =   2.34687196853351E-03  1.30716773361031E-02
 cg2d: Sum(rhs),rhsMax =   2.34868600968357E-03  1.30717304914805E-02
 cg2d: Sum(rhs),rhsMax =   2.35049856850303E-03  1.30717835797483E-02
 cg2d: Sum(rhs),rhsMax =   2.35230993118005E-03  1.30718365970215E-02
 cg2d: Sum(rhs),rhsMax =   2.35418306401089E-03  1.30718895427357E-02
 cg2d: Sum(rhs),rhsMax =   2.35605433948760E-03  1.30719424231937E-02
 cg2d: Sum(rhs),rhsMax =   2.35792447812050E-03  1.30719952392008E-02
 cg2d: Sum(rhs),rhsMax =   2.35979291147422E-03  1.30720479809704E-02
 cg2d: Sum(rhs),rhsMax =   2.36165992992407E-03  1.30721006588485E-02
 cg2d: Sum(rhs),rhsMax =   2.36352518566082E-03  1.30721532607403E-02
 cg2d: Sum(rhs),rhsMax =   2.36538912628584E-03  1.30722057968541E-02
 cg2d: Sum(rhs),rhsMax =   2.36731552799135E-03  1.30722582595274E-02
 cg2d: Sum(rhs),rhsMax =   2.36924040505564E-03  1.30723106518433E-02
 cg2d: Sum(rhs),rhsMax =   2.37116390518776E-03  1.30723629701042E-02
 cg2d: Sum(rhs),rhsMax =   2.37308550911482E-03  1.30724152171090E-02
(PID.TID 0000.0001)      cg2d_init_res =   1.73057835521431E-03
(PID.TID 0000.0001)      cg2d_iters(min,last) =      -1     341
(PID.TID 0000.0001)      cg2d_last_res =   9.94820194059851E-08
(PID.TID 0000.0001) // =======================================================
(PID.TID 0000.0001) // Begin MONITOR dynamic field statistics
(PID.TID 0000.0001) // =======================================================
(PID.TID 0000.0001) %MON time_tsnumber                =                 16416
(PID.TID 0000.0001) %MON time_secondsf                =   1.9699200000000E+07
(PID.TID 0000.0001) %MON dynstat_eta_max              =   1.3002720889794E-01
(PID.TID 0000.0001) %MON dynstat_eta_min              =  -3.2926387649723E-01
(PID.TID 0000.0001) %MON dynstat_eta_mean             =  -1.4774689181879E-07
(PID.TID 0000.0001) %MON dynstat_eta_sd               =   1.1679536798857E-01
(PID.TID 0000.0001) %MON dynstat_eta_del2             =   7.0790645493497E-07
(PID.TID 0000.0001) %MON dynstat_uvel_max             =   1.2461550620014E-01
(PID.TID 0000.0001) %MON dynstat_uvel_min             =  -1.2903488902027E-01
(PID.TID 0000.0001) %MON dynstat_uvel_mean            =   2.6370423057455E-08
(PID.TID 0000.0001) %MON dynstat_uvel_sd              =   4.8803095724763E-02
(PID.TID 0000.0001) %MON dynstat_uvel_del2            =   1.0723162032516E-06
(PID.TID 0000.0001) %MON dynstat_vvel_max             =   1.4870215131240E-01
(PID.TID 0000.0001) %MON dynstat_vvel_min             =  -1.1822008495739E-01
(PID.TID 0000.0001) %MON dynstat_vvel_mean            =  -9.8963135119793E-08
(PID.TID 0000.0001) %MON dynstat_vvel_sd              =   4.6202827317339E-02
(PID.TID 0000.0001) %MON dynstat_vvel_del2            =   1.2813773636955E-06
(PID.TID 0000.0001) %MON dynstat_wvel_max             =   7.3262228374369E-09
(PID.TID 0000.0001) %MON dynstat_wvel_min             =  -8.4589713346213E-09
(PID.TID 0000.0001) %MON dynstat_wvel_mean            =   9.8706358358034E-21
(PID.TID 0000.0001) %MON dynstat_wvel_sd              =   2.7487555177359E-09
(PID.TID 0000.0001) %MON dynstat_wvel_del2            =   2.8352847997955E-14
(PID.TID 0000.0001) %MON dynstat_theta_max            =   2.0000000000000E+01
(PID.TID 0000.0001) %MON dynstat_theta_min            =   2.0000000000000E+01
(PID.TID 0000.0001) %MON dynstat_theta_mean           =   1.9999999999999E+01
(PID.TID 0000.0001) %MON dynstat_theta_sd             =   1.1972645097557E-12
(PID.TID 0000.0001) %MON dynstat_theta_del2           =   0.0000000000000E+00
(PID.TID 0000.0001) %MON dynstat_salt_max             =   3.0000000000000E+01
(PID.TID 0000.0001) %MON dynstat_salt_min             =   3.0000000000000E+01
(PID.TID 0000.0001) %MON dynstat_salt_mean            =   2.9999999999998E+01
(PID.TID 0000.0001) %MON dynstat_salt_sd              =   2.1529444893531E-12
(PID.TID 0000.0001) %MON dynstat_salt_del2            =   0.0000000000000E+00
(PID.TID 0000.0001) %MON trAdv_CFL_u_max              =   3.0967822683950E-02
(PID.TID 0000.0001) %MON trAdv_CFL_v_max              =   3.5687428564436E-02
(PID.TID 0000.0001) %MON trAdv_CFL_w_max              =   1.8830044066703E-09
(PID.TID 0000.0001) %MON advcfl_uvel_max              =   3.0968373364866E-02
(PID.TID 0000.0001) %MON advcfl_vvel_max              =   3.5688516314976E-02
(PID.TID 0000.0001) %MON advcfl_wvel_max              =   4.0603062406182E-09
(PID.TID 0000.0001) %MON advcfl_W_hf_max              =   0.0000000000000E+00
(PID.TID 0000.0001) %MON pe_b_mean                    =   1.3956773017764E-05
(PID.TID 0000.0001) %MON ke_max                       =   1.1102674767367E-02
(PID.TID 0000.0001) %MON ke_mean                      =   2.2480565869287E-03
(PID.TID 0000.0001) %MON ke_vol                       =   7.2529629296391E+15
(PID.TID 0000.0001) %MON vort_r_min                   =  -4.2026250353999E-06
(PID.TID 0000.0001) %MON vort_r_max                   =   3.3787544355151E-06
(PID.TID 0000.0001) %MON vort_a_mean                  =   1.0615000000000E-04
(PID.TID 0000.0001) %MON vort_a_sd                    =   3.6381673439904E-06
(PID.TID 0000.0001) %MON vort_p_mean                  =   1.1210870169429E-04
(PID.TID 0000.0001) %MON vort_p_sd                    =   2.1068995973842E-05
(PID.TID 0000.0001) %MON surfExpan_theta_mean         =   1.9731264073798E-19
(PID.TID 0000.0001) %MON surfExpan_salt_mean          =   2.9600803649571E-19
(PID.TID 0000.0001) // =======================================================
(PID.TID 0000.0001) // End MONITOR dynamic field statistics
(PID.TID 0000.0001) // =======================================================
 cg2d: Sum(rhs),rhsMax =   2.37500560760141E-03  1.30724673902391E-02
 cg2d: Sum(rhs),rhsMax =   2.37692379817504E-03  1.30725194909016E-02
 cg2d: Sum(rhs),rhsMax =   2.37884038159218E-03  1.30725715158215E-02
 cg2d: Sum(rhs),rhsMax =   2.38075489620316E-03  1.30726234694493E-02
 cg2d: Sum(rhs),rhsMax =   2.38266783014491E-03  1.30726753434946E-02
 cg2d: Sum(rhs),rhsMax =   2.38457901144757E-03  1.30727271412277E-02
 cg2d: Sum(rhs),rhsMax =   2.38648841177116E-03  1.30727788676160E-02
 cg2d: Sum(rhs),rhsMax =   2.38839588479116E-03  1.30728305185036E-02
 cg2d: Sum(rhs),rhsMax =   2.39030174048098E-03  1.30728820910362E-02
 cg2d: Sum(rhs),rhsMax =   2.39220583413119E-03  1.30729335871253E-02
 cg2d: Sum(rhs),rhsMax =   2.39410827332475E-03  1.30729850028288E-02
 cg2d: Sum(rhs),rhsMax =   2.39607360621436E-03  1.30730363407300E-02
 cg2d: Sum(rhs),rhsMax =   2.39803703654577E-03  1.30730876053616E-02
 cg2d: Sum(rhs),rhsMax =   2.39999885811580E-03  1.30731387847882E-02
 cg2d: Sum(rhs),rhsMax =   2.40195875584968E-03  1.30731898872616E-02
 cg2d: Sum(rhs),rhsMax =   2.40391666309280E-03  1.30732409063480E-02
 cg2d: Sum(rhs),rhsMax =   2.40587275420127E-03  1.30732918482274E-02
 cg2d: Sum(rhs),rhsMax =   2.40782648171514E-03  1.30733427054995E-02
 cg2d: Sum(rhs),rhsMax =   2.40977863963402E-03  1.30733934847954E-02
 cg2d: Sum(rhs),rhsMax =   2.41172865681031E-03  1.30734441779918E-02
 cg2d: Sum(rhs),rhsMax =   2.41367691433226E-03  1.30734947929785E-02
 cg2d: Sum(rhs),rhsMax =   2.41562318300164E-03  1.30735453208563E-02
 cg2d: Sum(rhs),rhsMax =   2.41756753802754E-03  1.30735957685723E-02
 cg2d: Sum(rhs),rhsMax =   2.41950988994689E-03  1.30736461286398E-02
 cg2d: Sum(rhs),rhsMax =   2.42145003305104E-03  1.30736964077332E-02
 cg2d: Sum(rhs),rhsMax =   2.42338857449177E-03  1.30737465991124E-02
 cg2d: Sum(rhs),rhsMax =   2.42532499272086E-03  1.30737967090891E-02
 cg2d: Sum(rhs),rhsMax =   2.42725953263916E-03  1.30738467274928E-02
 cg2d: Sum(rhs),rhsMax =   2.42919217156680E-03  1.30738966628442E-02
 cg2d: Sum(rhs),rhsMax =   2.43112269322744E-03  1.30739465098358E-02
 cg2d: Sum(rhs),rhsMax =   2.43305131628430E-03  1.30739962743661E-02
 cg2d: Sum(rhs),rhsMax =   2.43497769953694E-03  1.30740459441700E-02
 cg2d: Sum(rhs),rhsMax =   2.43696718997186E-03  1.30740955345499E-02
 cg2d: Sum(rhs),rhsMax =   2.43895459611980E-03  1.30741450300541E-02
 cg2d: Sum(rhs),rhsMax =   2.44093995051615E-03  1.30741944362534E-02
 cg2d: Sum(rhs),rhsMax =   2.44292323896323E-03  1.30742437540874E-02
 cg2d: Sum(rhs),rhsMax =   2.44490388103682E-03  1.30742929816118E-02
 cg2d: Sum(rhs),rhsMax =   2.44688300296325E-03  1.30743421202681E-02
 cg2d: Sum(rhs),rhsMax =   2.44885997200252E-03  1.30743911653775E-02
 cg2d: Sum(rhs),rhsMax =   2.45083500354835E-03  1.30744401199617E-02
 cg2d: Sum(rhs),rhsMax =   2.45280795719521E-03  1.30744889802785E-02
 cg2d: Sum(rhs),rhsMax =   2.45477877479649E-03  1.30745377508461E-02
 cg2d: Sum(rhs),rhsMax =   2.45674761100080E-03  1.30745864260897E-02
 cg2d: Sum(rhs),rhsMax =   2.45871410148992E-03  1.30746350100440E-02
 cg2d: Sum(rhs),rhsMax =   2.46067876962270E-03  1.30746834979278E-02
 cg2d: Sum(rhs),rhsMax =   2.46264126289188E-03  1.30747318937907E-02
 cg2d: Sum(rhs),rhsMax =   2.46460185851956E-03  1.30747801926575E-02
 cg2d: Sum(rhs),rhsMax =   2.46662568667888E-03  1.30748284010996E-02
 cg2d: Sum(rhs),rhsMax =   2.46864723658004E-03  1.30748765107224E-02
 cg2d: Sum(rhs),rhsMax =   2.47066691958345E-03  1.30749245227095E-02
 cg2d: Sum(rhs),rhsMax =   2.47268428030399E-03  1.30749724405293E-02
 cg2d: Sum(rhs),rhsMax =   2.47469965116184E-03  1.30750202582039E-02
 cg2d: Sum(rhs),rhsMax =   2.47671278302443E-03  1.30750679807520E-02
 cg2d: Sum(rhs),rhsMax =   2.47872390321061E-03  1.30751156023882E-02
 cg2d: Sum(rhs),rhsMax =   2.48073270722670E-03  1.30751631283010E-02
 cg2d: Sum(rhs),rhsMax =   2.48273957549213E-03  1.30752105523775E-02
 cg2d: Sum(rhs),rhsMax =   2.48474389612419E-03  1.30752578786844E-02
 cg2d: Sum(rhs),rhsMax =   2.48674646149232E-03  1.30753051035081E-02
 cg2d: Sum(rhs),rhsMax =   2.48874682866264E-03  1.30753522305978E-02
 cg2d: Sum(rhs),rhsMax =   2.49074525548191E-03  1.30753992541962E-02
 cg2d: Sum(rhs),rhsMax =   2.49274132344674E-03  1.30754461792228E-02
 cg2d: Sum(rhs),rhsMax =   2.49473548639345E-03  1.30754930003649E-02
 cg2d: Sum(rhs),rhsMax =   2.49672753400043E-03  1.30755397207657E-02
 cg2d: Sum(rhs),rhsMax =   2.49871756361947E-03  1.30755863360974E-02
 cg2d: Sum(rhs),rhsMax =   2.50070546355905E-03  1.30756328511106E-02
 cg2d: Sum(rhs),rhsMax =   2.50275751707750E-03  1.30756792621871E-02
 cg2d: Sum(rhs),rhsMax =   2.50480731259586E-03  1.30757255679767E-02
 cg2d: Sum(rhs),rhsMax =   2.50685519819376E-03  1.30757717686627E-02
 cg2d: Sum(rhs),rhsMax =   2.50890073733923E-03  1.30758178655450E-02
 cg2d: Sum(rhs),rhsMax =   2.51094430986214E-03  1.30758638557248E-02
 cg2d: Sum(rhs),rhsMax =   2.51298563716830E-03  1.30759097416631E-02
 cg2d: Sum(rhs),rhsMax =   2.51502466194244E-03  1.30759555190402E-02
(PID.TID 0000.0001)      cg2d_init_res =   1.72543582313941E-03
(PID.TID 0000.0001)      cg2d_iters(min,last) =      -1     337
(PID.TID 0000.0001)      cg2d_last_res =   9.93719570064014E-08
(PID.TID 0000.0001) // =======================================================
(PID.TID 0000.0001) // Begin MONITOR dynamic field statistics
(PID.TID 0000.0001) // =======================================================
(PID.TID 0000.0001) %MON time_tsnumber                =                 16488
(PID.TID 0000.0001) %MON time_secondsf                =   1.9785600000000E+07
(PID.TID 0000.0001) %MON dynstat_eta_max              =   1.3020375831441E-01
(PID.TID 0000.0001) %MON dynstat_eta_min              =  -3.2987874762156E-01
(PID.TID 0000.0001) %MON dynstat_eta_mean             =  -1.5662640136347E-07
(PID.TID 0000.0001) %MON dynstat_eta_sd               =   1.1696186572867E-01
(PID.TID 0000.0001) %MON dynstat_eta_del2             =   7.0899975524371E-07
(PID.TID 0000.0001) %MON dynstat_uvel_max             =   1.2490544143739E-01
(PID.TID 0000.0001) %MON dynstat_uvel_min             =  -1.2919716937384E-01
(PID.TID 0000.0001) %MON dynstat_uvel_mean            =   1.2227320672793E-08
(PID.TID 0000.0001) %MON dynstat_uvel_sd              =   4.8892011189195E-02
(PID.TID 0000.0001) %MON dynstat_uvel_del2            =   1.0743906554896E-06
(PID.TID 0000.0001) %MON dynstat_vvel_max             =   1.4902515113498E-01
(PID.TID 0000.0001) %MON dynstat_vvel_min             =  -1.1838361047794E-01
(PID.TID 0000.0001) %MON dynstat_vvel_mean            =  -1.0114528939363E-07
(PID.TID 0000.0001) %MON dynstat_vvel_sd              =   4.6264921948789E-02
(PID.TID 0000.0001) %MON dynstat_vvel_del2            =   1.2826144868242E-06
(PID.TID 0000.0001) %MON dynstat_wvel_max             =   7.0797492982820E-09
(PID.TID 0000.0001) %MON dynstat_wvel_min             =  -8.5806504914945E-09
(PID.TID 0000.0001) %MON dynstat_wvel_mean            =  -5.3678320094523E-21
(PID.TID 0000.0001) %MON dynstat_wvel_sd              =   2.7335104423521E-09
(PID.TID 0000.0001) %MON dynstat_wvel_del2            =   2.8060525779647E-14
(PID.TID 0000.0001) %MON dynstat_theta_max            =   2.0000000000000E+01
(PID.TID 0000.0001) %MON dynstat_theta_min            =   2.0000000000000E+01
(PID.TID 0000.0001) %MON dynstat_theta_mean           =   1.9999999999999E+01
(PID.TID 0000.0001) %MON dynstat_theta_sd             =   1.1972645097557E-12
(PID.TID 0000.0001) %MON dynstat_theta_del2           =   0.0000000000000E+00
(PID.TID 0000.0001) %MON dynstat_salt_max             =   3.0000000000000E+01
(PID.TID 0000.0001) %MON dynstat_salt_min             =   3.0000000000000E+01
(PID.TID 0000.0001) %MON dynstat_salt_mean            =   2.9999999999998E+01
(PID.TID 0000.0001) %MON dynstat_salt_sd              =   2.1529444893531E-12
(PID.TID 0000.0001) %MON dynstat_salt_del2            =   0.0000000000000E+00
(PID.TID 0000.0001) %MON trAdv_CFL_u_max              =   3.1006789649080E-02
(PID.TID 0000.0001) %MON trAdv_CFL_v_max              =   3.5764969105596E-02
(PID.TID 0000.0001) %MON trAdv_CFL_w_max              =   1.8208184209547E-09
(PID.TID 0000.0001) %MON advcfl_uvel_max              =   3.1007320649721E-02
(PID.TID 0000.0001) %MON advcfl_vvel_max              =   3.5766036272394E-02
(PID.TID 0000.0001) %MON advcfl_wvel_max              =   4.1187122359173E-09
(PID.TID 0000.0001) %MON advcfl_W_hf_max              =   0.0000000000000E+00
(PID.TID 0000.0001) %MON pe_b_mean                    =   1.3996593560886E-05
(PID.TID 0000.0001) %MON ke_max                       =   1.1150297797667E-02
(PID.TID 0000.0001) %MON ke_mean                      =   2.2552382914745E-03
(PID.TID 0000.0001) %MON ke_vol                       =   7.2529629296391E+15
(PID.TID 0000.0001) %MON vort_r_min                   =  -4.2111491766212E-06
(PID.TID 0000.0001) %MON vort_r_max                   =   3.3852377005864E-06
(PID.TID 0000.0001) %MON vort_a_mean                  =   1.0615000000000E-04
(PID.TID 0000.0001) %MON vort_a_sd                    =   3.6384040879976E-06
(PID.TID 0000.0001) %MON vort_p_mean                  =   1.1210870169429E-04
(PID.TID 0000.0001) %MON vort_p_sd                    =   2.1069036639238E-05
(PID.TID 0000.0001) %MON surfExpan_theta_mean         =  -1.0749108024752E-19
(PID.TID 0000.0001) %MON surfExpan_salt_mean          =  -1.6118356801657E-19
(PID.TID 0000.0001) // =======================================================
(PID.TID 0000.0001) // End MONITOR dynamic field statistics
(PID.TID 0000.0001) // =======================================================
 cg2d: Sum(rhs),rhsMax =   2.51706174785069E-03  1.30760011883692E-02
 cg2d: Sum(rhs),rhsMax =   2.51909662191050E-03  1.30760467548582E-02
 cg2d: Sum(rhs),rhsMax =   2.52112961177557E-03  1.30760922122279E-02
 cg2d: Sum(rhs),rhsMax =   2.52316049880406E-03  1.30761375619165E-02
 cg2d: Sum(rhs),rhsMax =   2.52518947729539E-03  1.30761828013627E-02
 cg2d: Sum(rhs),rhsMax =   2.52721646907711E-03  1.30762279319892E-02
 cg2d: Sum(rhs),rhsMax =   2.52924119045285E-03  1.30762729541238E-02
 cg2d: Sum(rhs),rhsMax =   2.53126406803134E-03  1.30763178644578E-02
 cg2d: Sum(rhs),rhsMax =   2.53328476640386E-03  1.30763626636486E-02
 cg2d: Sum(rhs),rhsMax =   2.53530358538133E-03  1.30764073537306E-02
 cg2d: Sum(rhs),rhsMax =   2.53732035373495E-03  1.30764519317934E-02
 cg2d: Sum(rhs),rhsMax =   2.53933512280109E-03  1.30764963988725E-02
 cg2d: Sum(rhs),rhsMax =   2.54134790103154E-03  1.30765407525197E-02
 cg2d: Sum(rhs),rhsMax =   2.54335864487719E-03  1.30765849954444E-02
 cg2d: Sum(rhs),rhsMax =   2.54536721875762E-03  1.30766291245016E-02
 cg2d: Sum(rhs),rhsMax =   2.54737391505215E-03  1.30766731406301E-02
 cg2d: Sum(rhs),rhsMax =   2.54937883632891E-03  1.30767170414367E-02
 cg2d: Sum(rhs),rhsMax =   2.55138181450562E-03  1.30767608285498E-02
 cg2d: Sum(rhs),rhsMax =   2.55338290200757E-03  1.30768044997982E-02
 cg2d: Sum(rhs),rhsMax =   2.55538204991402E-03  1.30768480563633E-02
 cg2d: Sum(rhs),rhsMax =   2.55737932738558E-03  1.30768914963983E-02
 cg2d: Sum(rhs),rhsMax =   2.55937464108476E-03  1.30769348206959E-02
 cg2d: Sum(rhs),rhsMax =   2.56136809576381E-03  1.30769780279741E-02
 cg2d: Sum(rhs),rhsMax =   2.56335960242511E-03  1.30770211178624E-02
 cg2d: Sum(rhs),rhsMax =   2.56534879004214E-03  1.30770640921834E-02
 cg2d: Sum(rhs),rhsMax =   2.56733647787260E-03  1.30771069449715E-02
 cg2d: Sum(rhs),rhsMax =   2.56932228794922E-03  1.30771496791773E-02
 cg2d: Sum(rhs),rhsMax =   2.57130645035831E-03  1.30771922968663E-02
 cg2d: Sum(rhs),rhsMax =   2.57328854794036E-03  1.30772347961348E-02
 cg2d: Sum(rhs),rhsMax =   2.57533360941579E-03  1.30772771709647E-02
 cg2d: Sum(rhs),rhsMax =   2.57737663421023E-03  1.30773194288955E-02
 cg2d: Sum(rhs),rhsMax =   2.57941792741740E-03  1.30773615643906E-02
 cg2d: Sum(rhs),rhsMax =   2.58145714789500E-03  1.30774035804930E-02
 cg2d: Sum(rhs),rhsMax =   2.58349463652931E-03  1.30774454739144E-02
 cg2d: Sum(rhs),rhsMax =   2.58553018319005E-03  1.30774872465401E-02
 cg2d: Sum(rhs),rhsMax =   2.58756414483234E-03  1.30775288950858E-02
 cg2d: Sum(rhs),rhsMax =   2.58959607982090E-03  1.30775704227285E-02
 cg2d: Sum(rhs),rhsMax =   2.59162618002310E-03  1.30776118248577E-02
 cg2d: Sum(rhs),rhsMax =   2.59365465365351E-03  1.30776531061437E-02
 cg2d: Sum(rhs),rhsMax =   2.59568147126939E-03  1.30776942596907E-02
 cg2d: Sum(rhs),rhsMax =   2.59770641973413E-03  1.30777352909511E-02
 cg2d: Sum(rhs),rhsMax =   2.59972976962575E-03  1.30777761953185E-02
 cg2d: Sum(rhs),rhsMax =   2.60175101633540E-03  1.30778169753923E-02
 cg2d: Sum(rhs),rhsMax =   2.60377081675060E-03  1.30778576281834E-02
 cg2d: Sum(rhs),rhsMax =   2.60578854615327E-03  1.30778981539916E-02
 cg2d: Sum(rhs),rhsMax =   2.60780478309459E-03  1.30779385561823E-02
 cg2d: Sum(rhs),rhsMax =   2.60981941607403E-03  1.30779788323963E-02
 cg2d: Sum(rhs),rhsMax =   2.61183243155669E-03  1.30780189768126E-02
 cg2d: Sum(rhs),rhsMax =   2.61384347876595E-03  1.30780589962995E-02
 cg2d: Sum(rhs),rhsMax =   2.61585311638651E-03  1.30780988826853E-02
 cg2d: Sum(rhs),rhsMax =   2.61786077297655E-03  1.30781386424471E-02
 cg2d: Sum(rhs),rhsMax =   2.61986699723600E-03  1.30781782722051E-02
 cg2d: Sum(rhs),rhsMax =   2.62187148408779E-03  1.30782177738410E-02
 cg2d: Sum(rhs),rhsMax =   2.62387450744182E-03  1.30782571438332E-02
 cg2d: Sum(rhs),rhsMax =   2.62587579122845E-03  1.30782963847278E-02
 cg2d: Sum(rhs),rhsMax =   2.62787525509725E-03  1.30783354933184E-02
 cg2d: Sum(rhs),rhsMax =   2.62987345439204E-03  1.30783744714591E-02
 cg2d: Sum(rhs),rhsMax =   2.63186992406209E-03  1.30784133142894E-02
 cg2d: Sum(rhs),rhsMax =   2.63386484274832E-03  1.30784520296090E-02
 cg2d: Sum(rhs),rhsMax =   2.63585827028826E-03  1.30784906098234E-02
 cg2d: Sum(rhs),rhsMax =   2.63785001662336E-03  1.30785290567363E-02
 cg2d: Sum(rhs),rhsMax =   2.63984016241233E-03  1.30785673659850E-02
 cg2d: Sum(rhs),rhsMax =   2.64182867470101E-03  1.30786055480266E-02
 cg2d: Sum(rhs),rhsMax =   2.64381585265012E-03  1.30786435936471E-02
 cg2d: Sum(rhs),rhsMax =   2.64580131582607E-03  1.30786815036213E-02
 cg2d: Sum(rhs),rhsMax =   2.64778518586965E-03  1.30787192779060E-02
 cg2d: Sum(rhs),rhsMax =   2.64976752421908E-03  1.30787569160769E-02
 cg2d: Sum(rhs),rhsMax =   2.65174855754824E-03  1.30787944172574E-02
 cg2d: Sum(rhs),rhsMax =   2.65372776897514E-03  1.30788317836425E-02
 cg2d: Sum(rhs),rhsMax =   2.65570575869911E-03  1.30788690119077E-02
 cg2d: Sum(rhs),rhsMax =   2.65768211038693E-03  1.30789061043530E-02
 cg2d: Sum(rhs),rhsMax =   2.65965709417036E-03  1.30789430571352E-02
(PID.TID 0000.0001)      cg2d_init_res =   1.72082973289808E-03
(PID.TID 0000.0001)      cg2d_iters(min,last) =      -1     336
(PID.TID 0000.0001)      cg2d_last_res =   9.80449527885084E-08
(PID.TID 0000.0001) // =======================================================
(PID.TID 0000.0001) // Begin MONITOR dynamic field statistics
(PID.TID 0000.0001) // =======================================================
(PID.TID 0000.0001) %MON time_tsnumber                =                 16560
(PID.TID 0000.0001) %MON time_secondsf                =   1.9872000000000E+07
(PID.TID 0000.0001) %MON dynstat_eta_max              =   1.3040397879069E-01
(PID.TID 0000.0001) %MON dynstat_eta_min              =  -3.3050648300146E-01
(PID.TID 0000.0001) %MON dynstat_eta_mean             =  -1.6566004617575E-07
(PID.TID 0000.0001) %MON dynstat_eta_sd               =   1.1712851331416E-01
(PID.TID 0000.0001) %MON dynstat_eta_del2             =   7.1009807845398E-07
(PID.TID 0000.0001) %MON dynstat_uvel_max             =   1.2521111800591E-01
(PID.TID 0000.0001) %MON dynstat_uvel_min             =  -1.2935313673652E-01
(PID.TID 0000.0001) %MON dynstat_uvel_mean            =  -2.6724555633497E-09
(PID.TID 0000.0001) %MON dynstat_uvel_sd              =   4.8982731762454E-02
(PID.TID 0000.0001) %MON dynstat_uvel_del2            =   1.0763829703227E-06
(PID.TID 0000.0001) %MON dynstat_vvel_max             =   1.4934317901702E-01
(PID.TID 0000.0001) %MON dynstat_vvel_min             =  -1.1853839972523E-01
(PID.TID 0000.0001) %MON dynstat_vvel_mean            =  -1.0085672227993E-07
(PID.TID 0000.0001) %MON dynstat_vvel_sd              =   4.6325181335063E-02
(PID.TID 0000.0001) %MON dynstat_vvel_del2            =   1.2840594127682E-06
(PID.TID 0000.0001) %MON dynstat_wvel_max             =   6.7606337321922E-09
(PID.TID 0000.0001) %MON dynstat_wvel_min             =  -8.6740707739955E-09
(PID.TID 0000.0001) %MON dynstat_wvel_mean            =   2.6294500705655E-21
(PID.TID 0000.0001) %MON dynstat_wvel_sd              =   2.7174370035547E-09
(PID.TID 0000.0001) %MON dynstat_wvel_del2            =   2.8010716152254E-14
(PID.TID 0000.0001) %MON dynstat_theta_max            =   2.0000000000000E+01
(PID.TID 0000.0001) %MON dynstat_theta_min            =   2.0000000000000E+01
(PID.TID 0000.0001) %MON dynstat_theta_mean           =   1.9999999999999E+01
(PID.TID 0000.0001) %MON dynstat_theta_sd             =   1.1972645097557E-12
(PID.TID 0000.0001) %MON dynstat_theta_del2           =   0.0000000000000E+00
(PID.TID 0000.0001) %MON dynstat_salt_max             =   3.0000000000000E+01
(PID.TID 0000.0001) %MON dynstat_salt_min             =   3.0000000000000E+01
(PID.TID 0000.0001) %MON dynstat_salt_mean            =   2.9999999999998E+01
(PID.TID 0000.0001) %MON dynstat_salt_sd              =   2.1529444893531E-12
(PID.TID 0000.0001) %MON dynstat_salt_del2            =   0.0000000000000E+00
(PID.TID 0000.0001) %MON trAdv_CFL_u_max              =   3.1044244144262E-02
(PID.TID 0000.0001) %MON trAdv_CFL_v_max              =   3.5841308423841E-02
(PID.TID 0000.0001) %MON trAdv_CFL_w_max              =   1.7405438176073E-09
(PID.TID 0000.0001) %MON advcfl_uvel_max              =   3.1044752816766E-02
(PID.TID 0000.0001) %MON advcfl_vvel_max              =   3.5842362964086E-02
(PID.TID 0000.0001) %MON advcfl_wvel_max              =   4.1635539715178E-09
(PID.TID 0000.0001) %MON advcfl_W_hf_max              =   0.0000000000000E+00
(PID.TID 0000.0001) %MON pe_b_mean                    =   1.4036506744260E-05
(PID.TID 0000.0001) %MON ke_max                       =   1.1196973312740E-02
(PID.TID 0000.0001) %MON ke_mean                      =   2.2624350872672E-03
(PID.TID 0000.0001) %MON ke_vol                       =   7.2529629296391E+15
(PID.TID 0000.0001) %MON vort_r_min                   =  -4.2192875581615E-06
(PID.TID 0000.0001) %MON vort_r_max                   =   3.3928555360143E-06
(PID.TID 0000.0001) %MON vort_a_mean                  =   1.0615000000000E-04
(PID.TID 0000.0001) %MON vort_a_sd                    =   3.6386433267061E-06
(PID.TID 0000.0001) %MON vort_p_mean                  =   1.1210870169429E-04
(PID.TID 0000.0001) %MON vort_p_sd                    =   2.1069079199146E-05
(PID.TID 0000.0001) %MON surfExpan_theta_mean         =   5.2557726973367E-20
(PID.TID 0000.0001) %MON surfExpan_salt_mean          =   7.8799337336898E-20
(PID.TID 0000.0001) // =======================================================
(PID.TID 0000.0001) // End MONITOR dynamic field statistics
(PID.TID 0000.0001) // =======================================================
 cg2d: Sum(rhs),rhsMax =   2.66163046512077E-03  1.30789798733466E-02
 cg2d: Sum(rhs),rhsMax =   2.66360246524870E-03  1.30790165486180E-02
 cg2d: Sum(rhs),rhsMax =   2.66557262297154E-03  1.30790530860179E-02
 cg2d: Sum(rhs),rhsMax =   2.66754162857347E-03  1.30790894831876E-02
 cg2d: Sum(rhs),rhsMax =   2.66950894047951E-03  1.30791257421505E-02
 cg2d: Sum(rhs),rhsMax =   2.67147491290462E-03  1.30791618590154E-02
 cg2d: Sum(rhs),rhsMax =   2.67343952568578E-03  1.30791978376630E-02
 cg2d: Sum(rhs),rhsMax =   2.67540233163976E-03  1.30792336716725E-02
 cg2d: Sum(rhs),rhsMax =   2.67736403788145E-03  1.30792693681010E-02
 cg2d: Sum(rhs),rhsMax =   2.67932424188890E-03  1.30793049199191E-02
 cg2d: Sum(rhs),rhsMax =   2.68128298580107E-03  1.30793403306459E-02
 cg2d: Sum(rhs),rhsMax =   2.68324033993366E-03  1.30793755958258E-02
 cg2d: Sum(rhs),rhsMax =   2.68519591640675E-03  1.30794107206608E-02
 cg2d: Sum(rhs),rhsMax =   2.68721322514000E-03  1.30794456953445E-02
 cg2d: Sum(rhs),rhsMax =   2.68922908280422E-03  1.30794805322708E-02
 cg2d: Sum(rhs),rhsMax =   2.69124356799937E-03  1.30795152242360E-02
 cg2d: Sum(rhs),rhsMax =   2.69325653266841E-03  1.30795497708858E-02
 cg2d: Sum(rhs),rhsMax =   2.69526748860407E-03  1.30795841735859E-02
 cg2d: Sum(rhs),rhsMax =   2.69727748536309E-03  1.30796184288876E-02
 cg2d: Sum(rhs),rhsMax =   2.69928575051924E-03  1.30796525374651E-02
 cg2d: Sum(rhs),rhsMax =   2.70129294341423E-03  1.30796865004680E-02
 cg2d: Sum(rhs),rhsMax =   2.70329854732261E-03  1.30797203177379E-02
 cg2d: Sum(rhs),rhsMax =   2.70530273981143E-03  1.30797539873101E-02
 cg2d: Sum(rhs),rhsMax =   2.70730552598011E-03  1.30797875099293E-02
 cg2d: Sum(rhs),rhsMax =   2.70930671763794E-03  1.30798208839862E-02
 cg2d: Sum(rhs),rhsMax =   2.71130650885240E-03  1.30798541100946E-02
 cg2d: Sum(rhs),rhsMax =   2.71330442691023E-03  1.30798871884884E-02
 cg2d: Sum(rhs),rhsMax =   2.71530122248595E-03  1.30799201168793E-02
 cg2d: Sum(rhs),rhsMax =   2.71729642022960E-03  1.30799528953285E-02
 cg2d: Sum(rhs),rhsMax =   2.71929021252599E-03  1.30799855229785E-02
 cg2d: Sum(rhs),rhsMax =   2.72128251291981E-03  1.30800180010287E-02
 cg2d: Sum(rhs),rhsMax =   2.72327323947721E-03  1.30800503273170E-02
 cg2d: Sum(rhs),rhsMax =   2.72526201337319E-03  1.30800825031699E-02
 cg2d: Sum(rhs),rhsMax =   2.72724970634610E-03  1.30801145270154E-02
 cg2d: Sum(rhs),rhsMax =   2.72923572938943E-03  1.30801463996838E-02
 cg2d: Sum(rhs),rhsMax =   2.73122048773333E-03  1.30801781188472E-02
 cg2d: Sum(rhs),rhsMax =   2.73320351053331E-03  1.30802096861022E-02
 cg2d: Sum(rhs),rhsMax =   2.73518518051001E-03  1.30802410995369E-02
 cg2d: Sum(rhs),rhsMax =   2.73716523163136E-03  1.30802723610388E-02
 cg2d: Sum(rhs),rhsMax =   2.73914300472751E-03  1.30803034705042E-02
 cg2d: Sum(rhs),rhsMax =   2.74111981516001E-03  1.30803344226643E-02
 cg2d: Sum(rhs),rhsMax =   2.74309484274954E-03  1.30803652213345E-02
 cg2d: Sum(rhs),rhsMax =   2.74506856085532E-03  1.30803958631942E-02
 cg2d: Sum(rhs),rhsMax =   2.74704046426080E-03  1.30804263514175E-02
 cg2d: Sum(rhs),rhsMax =   2.74901107694634E-03  1.30804566814210E-02
 cg2d: Sum(rhs),rhsMax =   2.75097938687715E-03  1.30804868559780E-02
 cg2d: Sum(rhs),rhsMax =   2.75294647038138E-03  1.30805168747951E-02
 cg2d: Sum(rhs),rhsMax =   2.75491181179316E-03  1.30805467372900E-02
 cg2d: Sum(rhs),rhsMax =   2.75687565078892E-03  1.30805764414504E-02
 cg2d: Sum(rhs),rhsMax =   2.75883769716450E-03  1.30806059890307E-02
 cg2d: Sum(rhs),rhsMax =   2.76079793396177E-03  1.30806353782918E-02
 cg2d: Sum(rhs),rhsMax =   2.76275633685594E-03  1.30806646107454E-02
 cg2d: Sum(rhs),rhsMax =   2.76471308202378E-03  1.30806936824741E-02
 cg2d: Sum(rhs),rhsMax =   2.76666811658354E-03  1.30807225952477E-02
 cg2d: Sum(rhs),rhsMax =   2.76862119488831E-03  1.30807513474192E-02
 cg2d: Sum(rhs),rhsMax =   2.77057247097377E-03  1.30807799411263E-02
 cg2d: Sum(rhs),rhsMax =   2.77252193581960E-03  1.30808083732349E-02
 cg2d: Sum(rhs),rhsMax =   2.77446961637222E-03  1.30808366444547E-02
 cg2d: Sum(rhs),rhsMax =   2.77641536636702E-03  1.30808647549607E-02
 cg2d: Sum(rhs),rhsMax =   2.77835930319190E-03  1.30808927045589E-02
 cg2d: Sum(rhs),rhsMax =   2.78030124738226E-03  1.30809204917893E-02
 cg2d: Sum(rhs),rhsMax =   2.78224092257025E-03  1.30809481177989E-02
 cg2d: Sum(rhs),rhsMax =   2.78417886163423E-03  1.30809755808808E-02
 cg2d: Sum(rhs),rhsMax =   2.78611472312213E-03  1.30810028813260E-02
 cg2d: Sum(rhs),rhsMax =   2.78804867992219E-03  1.30810300172280E-02
 cg2d: Sum(rhs),rhsMax =   2.78998044505381E-03  1.30810569907772E-02
 cg2d: Sum(rhs),rhsMax =   2.79191011194298E-03  1.30810837999152E-02
 cg2d: Sum(rhs),rhsMax =   2.79383756923762E-03  1.30811104456424E-02
 cg2d: Sum(rhs),rhsMax =   2.79576273693153E-03  1.30811369255163E-02
 cg2d: Sum(rhs),rhsMax =   2.79768588558230E-03  1.30811632406235E-02
 cg2d: Sum(rhs),rhsMax =   2.79954514647935E-03  1.30811893954645E-02
 cg2d: Sum(rhs),rhsMax =   2.80146342408774E-03  1.30812153744018E-02
(PID.TID 0000.0001)      cg2d_init_res =   1.71580058480329E-03
(PID.TID 0000.0001)      cg2d_iters(min,last) =      -1     336
(PID.TID 0000.0001)      cg2d_last_res =   9.75948715901511E-08
(PID.TID 0000.0001) // =======================================================
(PID.TID 0000.0001) // Begin MONITOR dynamic field statistics
(PID.TID 0000.0001) // =======================================================
(PID.TID 0000.0001) %MON time_tsnumber                =                 16632
(PID.TID 0000.0001) %MON time_secondsf                =   1.9958400000000E+07
(PID.TID 0000.0001) %MON dynstat_eta_max              =   1.3062990031396E-01
(PID.TID 0000.0001) %MON dynstat_eta_min              =  -3.3114715994057E-01
(PID.TID 0000.0001) %MON dynstat_eta_mean             =  -1.7450885223275E-07
(PID.TID 0000.0001) %MON dynstat_eta_sd               =   1.1729511619470E-01
(PID.TID 0000.0001) %MON dynstat_eta_del2             =   7.1119926668003E-07
(PID.TID 0000.0001) %MON dynstat_uvel_max             =   1.2552841373874E-01
(PID.TID 0000.0001) %MON dynstat_uvel_min             =  -1.2950592749737E-01
(PID.TID 0000.0001) %MON dynstat_uvel_mean            =  -1.7723285440697E-08
(PID.TID 0000.0001) %MON dynstat_uvel_sd              =   4.9074357174468E-02
(PID.TID 0000.0001) %MON dynstat_uvel_del2            =   1.0782644892456E-06
(PID.TID 0000.0001) %MON dynstat_vvel_max             =   1.4965864892578E-01
(PID.TID 0000.0001) %MON dynstat_vvel_min             =  -1.1868571139029E-01
(PID.TID 0000.0001) %MON dynstat_vvel_mean            =  -9.8043958651999E-08
(PID.TID 0000.0001) %MON dynstat_vvel_sd              =   4.6384534112623E-02
(PID.TID 0000.0001) %MON dynstat_vvel_del2            =   1.2856997266022E-06
(PID.TID 0000.0001) %MON dynstat_wvel_max             =   6.3897163467482E-09
(PID.TID 0000.0001) %MON dynstat_wvel_min             =  -8.7430407654028E-09
(PID.TID 0000.0001) %MON dynstat_wvel_mean            =  -3.3572969796811E-21
(PID.TID 0000.0001) %MON dynstat_wvel_sd              =   2.7016430311956E-09
(PID.TID 0000.0001) %MON dynstat_wvel_del2            =   2.7891563971879E-14
(PID.TID 0000.0001) %MON dynstat_theta_max            =   2.0000000000000E+01
(PID.TID 0000.0001) %MON dynstat_theta_min            =   2.0000000000000E+01
(PID.TID 0000.0001) %MON dynstat_theta_mean           =   1.9999999999999E+01
(PID.TID 0000.0001) %MON dynstat_theta_sd             =   1.1972645097557E-12
(PID.TID 0000.0001) %MON dynstat_theta_del2           =   0.0000000000000E+00
(PID.TID 0000.0001) %MON dynstat_salt_max             =   3.0000000000000E+01
(PID.TID 0000.0001) %MON dynstat_salt_min             =   3.0000000000000E+01
(PID.TID 0000.0001) %MON dynstat_salt_mean            =   2.9999999999998E+01
(PID.TID 0000.0001) %MON dynstat_salt_sd              =   2.1529444893531E-12
(PID.TID 0000.0001) %MON dynstat_salt_del2            =   0.0000000000000E+00
(PID.TID 0000.0001) %MON trAdv_CFL_u_max              =   3.1080917095133E-02
(PID.TID 0000.0001) %MON trAdv_CFL_v_max              =   3.5917025745206E-02
(PID.TID 0000.0001) %MON trAdv_CFL_w_max              =   1.6478883759363E-09
(PID.TID 0000.0001) %MON advcfl_uvel_max              =   3.1081422599369E-02
(PID.TID 0000.0001) %MON advcfl_vvel_max              =   3.5918075742187E-02
(PID.TID 0000.0001) %MON advcfl_wvel_max              =   4.1966595673934E-09
(PID.TID 0000.0001) %MON advcfl_W_hf_max              =   0.0000000000000E+00
(PID.TID 0000.0001) %MON pe_b_mean                    =   1.4076466025571E-05
(PID.TID 0000.0001) %MON ke_max                       =   1.1243049639804E-02
(PID.TID 0000.0001) %MON ke_mean                      =   2.2696460314379E-03
(PID.TID 0000.0001) %MON ke_vol                       =   7.2529629296391E+15
(PID.TID 0000.0001) %MON vort_r_min                   =  -4.2270170060666E-06
(PID.TID 0000.0001) %MON vort_r_max                   =   3.4015569050097E-06
(PID.TID 0000.0001) %MON vort_a_mean                  =   1.0615000000000E-04
(PID.TID 0000.0001) %MON vort_a_sd                    =   3.6388842737356E-06
(PID.TID 0000.0001) %MON vort_p_mean                  =   1.1210870169429E-04
(PID.TID 0000.0001) %MON vort_p_sd                    =   2.1069124755000E-05
(PID.TID 0000.0001) %MON surfExpan_theta_mean         =  -6.7310588327896E-20
(PID.TID 0000.0001) %MON surfExpan_salt_mean          =  -1.0099999831201E-19
(PID.TID 0000.0001) // =======================================================
(PID.TID 0000.0001) // End MONITOR dynamic field statistics
(PID.TID 0000.0001) // =======================================================
 cg2d: Sum(rhs),rhsMax =   2.80331798694601E-03  1.30812411966054E-02
 cg2d: Sum(rhs),rhsMax =   2.80517038392403E-03  1.30812668498392E-02
 cg2d: Sum(rhs),rhsMax =   2.80708192257866E-03  1.30812923277011E-02
 cg2d: Sum(rhs),rhsMax =   2.80892971801509E-03  1.30813176500477E-02
 cg2d: Sum(rhs),rhsMax =   2.81077482851746E-03  1.30813428004993E-02
 cg2d: Sum(rhs),rhsMax =   2.81261789022233E-03  1.30813677832568E-02
 cg2d: Sum(rhs),rhsMax =   2.81445801097003E-03  1.30813925957828E-02
 cg2d: Sum(rhs),rhsMax =   2.81629599471166E-03  1.30814172419449E-02
 cg2d: Sum(rhs),rhsMax =   2.81813128018507E-03  1.30814417172409E-02
 cg2d: Sum(rhs),rhsMax =   2.81996400681063E-03  1.30814660246946E-02
 cg2d: Sum(rhs),rhsMax =   2.82179394804206E-03  1.30814901607055E-02
 cg2d: Sum(rhs),rhsMax =   2.82362116342914E-03  1.30815141283424E-02
 cg2d: Sum(rhs),rhsMax =   2.82544541795040E-03  1.30815379238309E-02
 cg2d: Sum(rhs),rhsMax =   2.82726709830543E-03  1.30815615506483E-02
 cg2d: Sum(rhs),rhsMax =   2.82908568748378E-03  1.30815850055159E-02
 cg2d: Sum(rhs),rhsMax =   2.83090136887647E-03  1.30816082889107E-02
 cg2d: Sum(rhs),rhsMax =   2.83271417037057E-03  1.30816314001494E-02
 cg2d: Sum(rhs),rhsMax =   2.83452395023576E-03  1.30816543399958E-02
 cg2d: Sum(rhs),rhsMax =   2.83633064671452E-03  1.30816771064552E-02
 cg2d: Sum(rhs),rhsMax =   2.83813429801825E-03  1.30816997013621E-02
 cg2d: Sum(rhs),rhsMax =   2.83993439519904E-03  1.30817221219509E-02
 cg2d: Sum(rhs),rhsMax =   2.84173148626539E-03  1.30817443704277E-02
 cg2d: Sum(rhs),rhsMax =   2.84352518936385E-03  1.30817664440826E-02
 cg2d: Sum(rhs),rhsMax =   2.84531560327433E-03  1.30817883439196E-02
 cg2d: Sum(rhs),rhsMax =   2.84710244703793E-03  1.30818100687727E-02
 cg2d: Sum(rhs),rhsMax =   2.84888582417470E-03  1.30818316196053E-02
 cg2d: Sum(rhs),rhsMax =   2.85066532523895E-03  1.30818529952289E-02
 cg2d: Sum(rhs),rhsMax =   2.85244135042827E-03  1.30818741960349E-02
 cg2d: Sum(rhs),rhsMax =   2.85421372786795E-03  1.30818952195175E-02
 cg2d: Sum(rhs),rhsMax =   2.85598241105131E-03  1.30819160674625E-02
 cg2d: Sum(rhs),rhsMax =   2.85774692889391E-03  1.30819367384514E-02
 cg2d: Sum(rhs),rhsMax =   2.85950765802587E-03  1.30819572344417E-02
 cg2d: Sum(rhs),rhsMax =   2.86126441489756E-03  1.30819775520643E-02
 cg2d: Sum(rhs),rhsMax =   2.86301704264924E-03  1.30819976913229E-02
 cg2d: Sum(rhs),rhsMax =   2.86476552291419E-03  1.30820176546263E-02
 cg2d: Sum(rhs),rhsMax =   2.86656874215154E-03  1.30820374323149E-02
 cg2d: Sum(rhs),rhsMax =   2.86836743729267E-03  1.30820570398232E-02
 cg2d: Sum(rhs),rhsMax =   2.87016177815282E-03  1.30820764658635E-02
 cg2d: Sum(rhs),rhsMax =   2.87195139394733E-03  1.30820957144319E-02
 cg2d: Sum(rhs),rhsMax =   2.87373589637159E-03  1.30821147836064E-02
 cg2d: Sum(rhs),rhsMax =   2.87551599043633E-03  1.30821336717651E-02
 cg2d: Sum(rhs),rhsMax =   2.87729125259356E-03  1.30821523802016E-02
 cg2d: Sum(rhs),rhsMax =   2.87906166085217E-03  1.30821709086355E-02
 cg2d: Sum(rhs),rhsMax =   2.88082637265035E-03  1.30821892585777E-02
 cg2d: Sum(rhs),rhsMax =   2.88258634561971E-03  1.30822074248028E-02
 cg2d: Sum(rhs),rhsMax =   2.88434091059203E-03  1.30822254109656E-02
 cg2d: Sum(rhs),rhsMax =   2.88609026488481E-03  1.30822432145130E-02
 cg2d: Sum(rhs),rhsMax =   2.88783419468222E-03  1.30822608372973E-02
 cg2d: Sum(rhs),rhsMax =   2.88957255448969E-03  1.30822782766637E-02
 cg2d: Sum(rhs),rhsMax =   2.89130518497768E-03  1.30822955350179E-02
 cg2d: Sum(rhs),rhsMax =   2.89303205499323E-03  1.30823126087809E-02
 cg2d: Sum(rhs),rhsMax =   2.89475242397594E-03  1.30823295019978E-02
 cg2d: Sum(rhs),rhsMax =   2.89646718363155E-03  1.30823462087652E-02
 cg2d: Sum(rhs),rhsMax =   2.89817571914465E-03  1.30823627338557E-02
 cg2d: Sum(rhs),rhsMax =   2.89987814140957E-03  1.30823790732737E-02
 cg2d: Sum(rhs),rhsMax =   2.90157415852882E-03  1.30823952296135E-02
 cg2d: Sum(rhs),rhsMax =   2.90326372495562E-03  1.30824111998641E-02
 cg2d: Sum(rhs),rhsMax =   2.90494669107094E-03  1.30824269863472E-02
 cg2d: Sum(rhs),rhsMax =   2.90662288842250E-03  1.30824425869023E-02
 cg2d: Sum(rhs),rhsMax =   2.90829191588959E-03  1.30824580028768E-02
 cg2d: Sum(rhs),rhsMax =   2.90995408295443E-03  1.30824732331265E-02
 cg2d: Sum(rhs),rhsMax =   2.91160920240857E-03  1.30824882781754E-02
 cg2d: Sum(rhs),rhsMax =   2.91325705310038E-03  1.30825031338185E-02
 cg2d: Sum(rhs),rhsMax =   2.91489742699321E-03  1.30825178042384E-02
 cg2d: Sum(rhs),rhsMax =   2.91653013687889E-03  1.30825322875771E-02
 cg2d: Sum(rhs),rhsMax =   2.91815538823352E-03  1.30825465829050E-02
 cg2d: Sum(rhs),rhsMax =   2.91977269228220E-03  1.30825606902277E-02
 cg2d: Sum(rhs),rhsMax =   2.92138207377204E-03  1.30825746099683E-02
 cg2d: Sum(rhs),rhsMax =   2.92298335894221E-03  1.30825883427578E-02
 cg2d: Sum(rhs),rhsMax =   2.92457634260435E-03  1.30826018879691E-02
 cg2d: Sum(rhs),rhsMax =   2.92616097737573E-03  1.30826152420030E-02
 cg2d: Sum(rhs),rhsMax =   2.92773708422617E-03  1.30826284078723E-02
(PID.TID 0000.0001)      cg2d_init_res =   1.70957671911071E-03
(PID.TID 0000.0001)      cg2d_iters(min,last) =      -1     335
(PID.TID 0000.0001)      cg2d_last_res =   9.79533188442366E-08
(PID.TID 0000.0001) // =======================================================
(PID.TID 0000.0001) // Begin MONITOR dynamic field statistics
(PID.TID 0000.0001) // =======================================================
(PID.TID 0000.0001) %MON time_tsnumber                =                 16704
(PID.TID 0000.0001) %MON time_secondsf                =   2.0044800000000E+07
(PID.TID 0000.0001) %MON dynstat_eta_max              =   1.3088256891784E-01
(PID.TID 0000.0001) %MON dynstat_eta_min              =  -3.3180121790733E-01
(PID.TID 0000.0001) %MON dynstat_eta_mean             =  -1.8237113133992E-07
(PID.TID 0000.0001) %MON dynstat_eta_sd               =   1.1746143002338E-01
(PID.TID 0000.0001) %MON dynstat_eta_del2             =   7.1230061286921E-07
(PID.TID 0000.0001) %MON dynstat_uvel_max             =   1.2585282572029E-01
(PID.TID 0000.0001) %MON dynstat_uvel_min             =  -1.2965360121403E-01
(PID.TID 0000.0001) %MON dynstat_uvel_mean            =  -3.2307789418984E-08
(PID.TID 0000.0001) %MON dynstat_uvel_sd              =   4.9165921989407E-02
(PID.TID 0000.0001) %MON dynstat_uvel_del2            =   1.0800096341542E-06
(PID.TID 0000.0001) %MON dynstat_vvel_max             =   1.4997396612864E-01
(PID.TID 0000.0001) %MON dynstat_vvel_min             =  -1.1882722237469E-01
(PID.TID 0000.0001) %MON dynstat_vvel_mean            =  -9.2757119542569E-08
(PID.TID 0000.0001) %MON dynstat_vvel_sd              =   4.6443935457811E-02
(PID.TID 0000.0001) %MON dynstat_vvel_del2            =   1.2875119327474E-06
(PID.TID 0000.0001) %MON dynstat_wvel_max             =   6.1165573121980E-09
(PID.TID 0000.0001) %MON dynstat_wvel_min             =  -8.7828355585225E-09
(PID.TID 0000.0001) %MON dynstat_wvel_mean            =   4.6632206396656E-21
(PID.TID 0000.0001) %MON dynstat_wvel_sd              =   2.6871680462437E-09
(PID.TID 0000.0001) %MON dynstat_wvel_del2            =   2.7860523455639E-14
(PID.TID 0000.0001) %MON dynstat_theta_max            =   2.0000000000000E+01
(PID.TID 0000.0001) %MON dynstat_theta_min            =   2.0000000000000E+01
(PID.TID 0000.0001) %MON dynstat_theta_mean           =   1.9999999999999E+01
(PID.TID 0000.0001) %MON dynstat_theta_sd             =   1.1972645097557E-12
(PID.TID 0000.0001) %MON dynstat_theta_del2           =   0.0000000000000E+00
(PID.TID 0000.0001) %MON dynstat_salt_max             =   3.0000000000000E+01
(PID.TID 0000.0001) %MON dynstat_salt_min             =   3.0000000000000E+01
(PID.TID 0000.0001) %MON dynstat_salt_mean            =   2.9999999999998E+01
(PID.TID 0000.0001) %MON dynstat_salt_sd              =   2.1529444893531E-12
(PID.TID 0000.0001) %MON dynstat_salt_del2            =   0.0000000000000E+00
(PID.TID 0000.0001) %MON trAdv_CFL_u_max              =   3.1116385229024E-02
(PID.TID 0000.0001) %MON trAdv_CFL_v_max              =   3.5992698513425E-02
(PID.TID 0000.0001) %MON trAdv_CFL_w_max              =   1.5953251222130E-09
(PID.TID 0000.0001) %MON advcfl_uvel_max              =   3.1116864291367E-02
(PID.TID 0000.0001) %MON advcfl_vvel_max              =   3.5993751870873E-02
(PID.TID 0000.0001) %MON advcfl_wvel_max              =   4.2157610680908E-09
(PID.TID 0000.0001) %MON advcfl_W_hf_max              =   0.0000000000000E+00
(PID.TID 0000.0001) %MON pe_b_mean                    =   1.4116412628236E-05
(PID.TID 0000.0001) %MON ke_max                       =   1.1288888398163E-02
(PID.TID 0000.0001) %MON ke_mean                      =   2.2768681195446E-03
(PID.TID 0000.0001) %MON ke_vol                       =   7.2529629296391E+15
(PID.TID 0000.0001) %MON vort_r_min                   =  -4.2343227740969E-06
(PID.TID 0000.0001) %MON vort_r_max                   =   3.4112441069211E-06
(PID.TID 0000.0001) %MON vort_a_mean                  =   1.0615000000000E-04
(PID.TID 0000.0001) %MON vort_a_sd                    =   3.6391259937948E-06
(PID.TID 0000.0001) %MON vort_p_mean                  =   1.1210870169429E-04
(PID.TID 0000.0001) %MON vort_p_sd                    =   2.1069174303400E-05
(PID.TID 0000.0001) %MON surfExpan_theta_mean         =   9.3122733399131E-20
(PID.TID 0000.0001) %MON surfExpan_salt_mean          =   1.3970356264809E-19
(PID.TID 0000.0001) // =======================================================
(PID.TID 0000.0001) // End MONITOR dynamic field statistics
(PID.TID 0000.0001) // =======================================================
 cg2d: Sum(rhs),rhsMax =   2.92930441657007E-03  1.30826413837304E-02
 cg2d: Sum(rhs),rhsMax =   2.93086288023972E-03  1.30826541717526E-02
 cg2d: Sum(rhs),rhsMax =   2.93241233020799E-03  1.30826667672739E-02
 cg2d: Sum(rhs),rhsMax =   2.93395262138256E-03  1.30826791735945E-02
 cg2d: Sum(rhs),rhsMax =   2.93553670313805E-03  1.30826913862424E-02
 cg2d: Sum(rhs),rhsMax =   2.93711082453597E-03  1.30827034112504E-02
 cg2d: Sum(rhs),rhsMax =   2.93867529746029E-03  1.30827152461736E-02
 cg2d: Sum(rhs),rhsMax =   2.94022944435949E-03  1.30827268873902E-02
 cg2d: Sum(rhs),rhsMax =   2.94177322633571E-03  1.30827383380268E-02
 cg2d: Sum(rhs),rhsMax =   2.94330688662458E-03  1.30827495968583E-02
 cg2d: Sum(rhs),rhsMax =   2.94482981145181E-03  1.30827606639663E-02
 cg2d: Sum(rhs),rhsMax =   2.94634208307005E-03  1.30827715380260E-02
 cg2d: Sum(rhs),rhsMax =   2.94784324477584E-03  1.30827822205620E-02
 cg2d: Sum(rhs),rhsMax =   2.94933342616144E-03  1.30827927091562E-02
 cg2d: Sum(rhs),rhsMax =   2.95081217175240E-03  1.30828030041670E-02
 cg2d: Sum(rhs),rhsMax =   2.95227958011579E-03  1.30828131059385E-02
 cg2d: Sum(rhs),rhsMax =   2.95373516354466E-03  1.30828230146046E-02
 cg2d: Sum(rhs),rhsMax =   2.95517899654194E-03  1.30828327280351E-02
 cg2d: Sum(rhs),rhsMax =   2.95661064848585E-03  1.30828422478164E-02
 cg2d: Sum(rhs),rhsMax =   2.95803003877224E-03  1.30828515726020E-02
 cg2d: Sum(rhs),rhsMax =   2.95943708239131E-03  1.30828607035291E-02
 cg2d: Sum(rhs),rhsMax =   2.96083167448637E-03  1.30828696385335E-02
 cg2d: Sum(rhs),rhsMax =   2.96226250157408E-03  1.30828783724794E-02
 cg2d: Sum(rhs),rhsMax =   2.96367996755357E-03  1.30828869185066E-02
 cg2d: Sum(rhs),rhsMax =   2.96508415715853E-03  1.30828952661479E-02
 cg2d: Sum(rhs),rhsMax =   2.96647474857552E-03  1.30829034176625E-02
 cg2d: Sum(rhs),rhsMax =   2.96785134562204E-03  1.30829113737426E-02
 cg2d: Sum(rhs),rhsMax =   2.96921405018769E-03  1.30829191314980E-02
 cg2d: Sum(rhs),rhsMax =   2.97056195986090E-03  1.30829266950222E-02
 cg2d: Sum(rhs),rhsMax =   2.97189592169330E-03  1.30829340582683E-02
 cg2d: Sum(rhs),rhsMax =   2.97321528055139E-03  1.30829412264158E-02
 cg2d: Sum(rhs),rhsMax =   2.97456739203238E-03  1.30829481952926E-02
 cg2d: Sum(rhs),rhsMax =   2.97590410572444E-03  1.30829549680080E-02
 cg2d: Sum(rhs),rhsMax =   2.97722538904057E-03  1.30829615416770E-02
 cg2d: Sum(rhs),rhsMax =   2.97853091565411E-03  1.30829679161617E-02
 cg2d: Sum(rhs),rhsMax =   2.97982039588617E-03  1.30829740920297E-02
 cg2d: Sum(rhs),rhsMax =   2.98109398721612E-03  1.30829800687325E-02
 cg2d: Sum(rhs),rhsMax =   2.98235133728893E-03  1.30829858467721E-02
 cg2d: Sum(rhs),rhsMax =   2.98359238812828E-03  1.30829914259252E-02
 cg2d: Sum(rhs),rhsMax =   2.98481680010501E-03  1.30829968050341E-02
 cg2d: Sum(rhs),rhsMax =   2.98607005641823E-03  1.30830019830934E-02
 cg2d: Sum(rhs),rhsMax =   2.98730609955950E-03  1.30830069624133E-02
 cg2d: Sum(rhs),rhsMax =   2.98852490359249E-03  1.30830117407375E-02
 cg2d: Sum(rhs),rhsMax =   2.98972609798579E-03  1.30830163189110E-02
 cg2d: Sum(rhs),rhsMax =   2.99090959587810E-03  1.30830206962037E-02
 cg2d: Sum(rhs),rhsMax =   2.99207521101045E-03  1.30830248725187E-02
 cg2d: Sum(rhs),rhsMax =   2.99322284208759E-03  1.30830288473400E-02
 cg2d: Sum(rhs),rhsMax =   2.99435222688725E-03  1.30830326215696E-02
 cg2d: Sum(rhs),rhsMax =   2.99546340208565E-03  1.30830361928411E-02
 cg2d: Sum(rhs),rhsMax =   2.99655621155992E-03  1.30830395615051E-02
 cg2d: Sum(rhs),rhsMax =   2.99763059946919E-03  1.30830427284502E-02
 cg2d: Sum(rhs),rhsMax =   2.99872928123677E-03  1.30830456948936E-02
 cg2d: Sum(rhs),rhsMax =   2.99980875035436E-03  1.30830484580516E-02
 cg2d: Sum(rhs),rhsMax =   3.00086927241021E-03  1.30830510169739E-02
 cg2d: Sum(rhs),rhsMax =   3.00191047057619E-03  1.30830533730331E-02
 cg2d: Sum(rhs),rhsMax =   3.00293247369783E-03  1.30830555259039E-02
 cg2d: Sum(rhs),rhsMax =   3.00393493930605E-03  1.30830574743315E-02
 cg2d: Sum(rhs),rhsMax =   3.00491816356272E-03  1.30830592207494E-02
 cg2d: Sum(rhs),rhsMax =   3.00588190900821E-03  1.30830607611493E-02
 cg2d: Sum(rhs),rhsMax =   3.00682621041953E-03  1.30830620993180E-02
 cg2d: Sum(rhs),rhsMax =   3.00775097619612E-03  1.30830632296045E-02
 cg2d: Sum(rhs),rhsMax =   3.00865628756251E-03  1.30830641592431E-02
 cg2d: Sum(rhs),rhsMax =   3.00954209893669E-03  1.30830648807522E-02
 cg2d: Sum(rhs),rhsMax =   3.01044815316330E-03  1.30830653994966E-02
 cg2d: Sum(rhs),rhsMax =   3.01133433325220E-03  1.30830657123740E-02
 cg2d: Sum(rhs),rhsMax =   3.01220086373125E-03  1.30830658192670E-02
 cg2d: Sum(rhs),rhsMax =   3.01304759985436E-03  1.30830657211017E-02
 cg2d: Sum(rhs),rhsMax =   3.01387471692727E-03  1.30830654161642E-02
 cg2d: Sum(rhs),rhsMax =   3.01468223295140E-03  1.30830649056045E-02
 cg2d: Sum(rhs),rhsMax =   3.01547029747726E-03  1.30830641879625E-02
 cg2d: Sum(rhs),rhsMax =   3.01623906359454E-03  1.30830632639904E-02
 cg2d: Sum(rhs),rhsMax =   3.01698857910574E-03  1.30830621331158E-02
(PID.TID 0000.0001)      cg2d_init_res =   1.70165908680475E-03
(PID.TID 0000.0001)      cg2d_iters(min,last) =      -1     329
(PID.TID 0000.0001)      cg2d_last_res =   9.73112292750345E-08
(PID.TID 0000.0001) // =======================================================
(PID.TID 0000.0001) // Begin MONITOR dynamic field statistics
(PID.TID 0000.0001) // =======================================================
(PID.TID 0000.0001) %MON time_tsnumber                =                 16776
(PID.TID 0000.0001) %MON time_secondsf                =   2.0131200000000E+07
(PID.TID 0000.0001) %MON dynstat_eta_max              =   1.3116276024958E-01
(PID.TID 0000.0001) %MON dynstat_eta_min              =  -3.3247506293526E-01
(PID.TID 0000.0001) %MON dynstat_eta_mean             =  -1.8788162923434E-07
(PID.TID 0000.0001) %MON dynstat_eta_sd               =   1.1762717134806E-01
(PID.TID 0000.0001) %MON dynstat_eta_del2             =   7.1339891009606E-07
(PID.TID 0000.0001) %MON dynstat_uvel_max             =   1.2617967820737E-01
(PID.TID 0000.0001) %MON dynstat_uvel_min             =  -1.2979310079625E-01
(PID.TID 0000.0001) %MON dynstat_uvel_mean            =  -4.5823672394981E-08
(PID.TID 0000.0001) %MON dynstat_uvel_sd              =   4.9256439922939E-02
(PID.TID 0000.0001) %MON dynstat_uvel_del2            =   1.0815973855392E-06
(PID.TID 0000.0001) %MON dynstat_vvel_max             =   1.5029143678685E-01
(PID.TID 0000.0001) %MON dynstat_vvel_min             =  -1.1896496420372E-01
(PID.TID 0000.0001) %MON dynstat_vvel_mean            =  -8.5148909272539E-08
(PID.TID 0000.0001) %MON dynstat_vvel_sd              =   4.6504322651700E-02
(PID.TID 0000.0001) %MON dynstat_vvel_del2            =   1.2894616393131E-06
(PID.TID 0000.0001) %MON dynstat_wvel_max             =   5.9778396354523E-09
(PID.TID 0000.0001) %MON dynstat_wvel_min             =  -8.7920480663888E-09
(PID.TID 0000.0001) %MON dynstat_wvel_mean            =   1.5242019599427E-20
(PID.TID 0000.0001) %MON dynstat_wvel_sd              =   2.6748194276840E-09
(PID.TID 0000.0001) %MON dynstat_wvel_del2            =   2.7508146104365E-14
(PID.TID 0000.0001) %MON dynstat_theta_max            =   2.0000000000000E+01
(PID.TID 0000.0001) %MON dynstat_theta_min            =   2.0000000000000E+01
(PID.TID 0000.0001) %MON dynstat_theta_mean           =   1.9999999999999E+01
(PID.TID 0000.0001) %MON dynstat_theta_sd             =   1.1972645097557E-12
(PID.TID 0000.0001) %MON dynstat_theta_del2           =   0.0000000000000E+00
(PID.TID 0000.0001) %MON dynstat_salt_max             =   3.0000000000000E+01
(PID.TID 0000.0001) %MON dynstat_salt_min             =   3.0000000000000E+01
(PID.TID 0000.0001) %MON dynstat_salt_mean            =   2.9999999999998E+01
(PID.TID 0000.0001) %MON dynstat_salt_sd              =   2.1529444893531E-12
(PID.TID 0000.0001) %MON dynstat_salt_del2            =   0.0000000000000E+00
(PID.TID 0000.0001) %MON trAdv_CFL_u_max              =   3.1149893076194E-02
(PID.TID 0000.0001) %MON trAdv_CFL_v_max              =   3.6068880681561E-02
(PID.TID 0000.0001) %MON trAdv_CFL_w_max              =   1.5592964688871E-09
(PID.TID 0000.0001) %MON advcfl_uvel_max              =   3.1150344191100E-02
(PID.TID 0000.0001) %MON advcfl_vvel_max              =   3.6069944828845E-02
(PID.TID 0000.0001) %MON advcfl_wvel_max              =   4.2201830718666E-09
(PID.TID 0000.0001) %MON advcfl_W_hf_max              =   0.0000000000000E+00
(PID.TID 0000.0001) %MON pe_b_mean                    =   1.4156278030860E-05
(PID.TID 0000.0001) %MON ke_max                       =   1.1334851101609E-02
(PID.TID 0000.0001) %MON ke_mean                      =   2.2840963719542E-03
(PID.TID 0000.0001) %MON ke_vol                       =   7.2529629296391E+15
(PID.TID 0000.0001) %MON vort_r_min                   =  -4.2411993089470E-06
(PID.TID 0000.0001) %MON vort_r_max                   =   3.4217736430970E-06
(PID.TID 0000.0001) %MON vort_a_mean                  =   1.0615000000000E-04
(PID.TID 0000.0001) %MON vort_a_sd                    =   3.6393674285249E-06
(PID.TID 0000.0001) %MON vort_p_mean                  =   1.1210870169429E-04
(PID.TID 0000.0001) %MON vort_p_sd                    =   2.1069228688553E-05
(PID.TID 0000.0001) %MON surfExpan_theta_mean         =   3.0476059950934E-19
(PID.TID 0000.0001) %MON surfExpan_salt_mean          =   4.5716851504355E-19
(PID.TID 0000.0001) // =======================================================
(PID.TID 0000.0001) // End MONITOR dynamic field statistics
(PID.TID 0000.0001) // =======================================================
 cg2d: Sum(rhs),rhsMax =   3.01771909554603E-03  1.30830607958107E-02
 cg2d: Sum(rhs),rhsMax =   3.01843070786239E-03  1.30830592508319E-02
 cg2d: Sum(rhs),rhsMax =   3.01912359984983E-03  1.30830574975641E-02
 cg2d: Sum(rhs),rhsMax =   3.01979799347023E-03  1.30830555375721E-02
 cg2d: Sum(rhs),rhsMax =   3.02045409649551E-03  1.30830533695964E-02
 cg2d: Sum(rhs),rhsMax =   3.02109208914991E-03  1.30830509942987E-02
 cg2d: Sum(rhs),rhsMax =   3.02174783754302E-03  1.30830484112992E-02
 cg2d: Sum(rhs),rhsMax =   3.02238562895969E-03  1.30830456205923E-02
 cg2d: Sum(rhs),rhsMax =   3.02300584368620E-03  1.30830426204542E-02
 cg2d: Sum(rhs),rhsMax =   3.02360845389395E-03  1.30830394099030E-02
 cg2d: Sum(rhs),rhsMax =   3.02419404589332E-03  1.30830359921185E-02
 cg2d: Sum(rhs),rhsMax =   3.02476273821587E-03  1.30830323654784E-02
 cg2d: Sum(rhs),rhsMax =   3.02531497772717E-03  1.30830285284819E-02
 cg2d: Sum(rhs),rhsMax =   3.02585069305038E-03  1.30830244806289E-02
 cg2d: Sum(rhs),rhsMax =   3.02637082702916E-03  1.30830202247351E-02
 cg2d: Sum(rhs),rhsMax =   3.02687547095906E-03  1.30830157599342E-02
 cg2d: Sum(rhs),rhsMax =   3.02736509833770E-03  1.30830110835764E-02
 cg2d: Sum(rhs),rhsMax =   3.02783996543466E-03  1.30830061975456E-02
 cg2d: Sum(rhs),rhsMax =   3.02830055276133E-03  1.30830011007526E-02
 cg2d: Sum(rhs),rhsMax =   3.02874714326014E-03  1.30829957938974E-02
 cg2d: Sum(rhs),rhsMax =   3.02918034829885E-03  1.30829902758088E-02
 cg2d: Sum(rhs),rhsMax =   3.02960053589853E-03  1.30829845466231E-02
 cg2d: Sum(rhs),rhsMax =   3.03000814185169E-03  1.30829786059983E-02
 cg2d: Sum(rhs),rhsMax =   3.03040363183953E-03  1.30829724553181E-02
 cg2d: Sum(rhs),rhsMax =   3.03078739707419E-03  1.30829660915743E-02
 cg2d: Sum(rhs),rhsMax =   3.03116004211814E-03  1.30829595184037E-02
 cg2d: Sum(rhs),rhsMax =   3.03152168236702E-03  1.30829527305758E-02
 cg2d: Sum(rhs),rhsMax =   3.03187333312544E-03  1.30829457340152E-02
 cg2d: Sum(rhs),rhsMax =   3.03221519562233E-03  1.30829385230838E-02
 cg2d: Sum(rhs),rhsMax =   3.03254796327124E-03  1.30829311015488E-02
 cg2d: Sum(rhs),rhsMax =   3.03287194714818E-03  1.30829234644798E-02
 cg2d: Sum(rhs),rhsMax =   3.03318774590773E-03  1.30829156177888E-02
 cg2d: Sum(rhs),rhsMax =   3.03349583729074E-03  1.30829075556230E-02
 cg2d: Sum(rhs),rhsMax =   3.03379681425277E-03  1.30828992831293E-02
 cg2d: Sum(rhs),rhsMax =   3.03409116721069E-03  1.30828907952444E-02
 cg2d: Sum(rhs),rhsMax =   3.03437941973050E-03  1.30828820963126E-02
 cg2d: Sum(rhs),rhsMax =   3.03469241692920E-03  1.30828731835752E-02
 cg2d: Sum(rhs),rhsMax =   3.03500018946632E-03  1.30828640568726E-02
 cg2d: Sum(rhs),rhsMax =   3.03530345247328E-03  1.30828547157776E-02
 cg2d: Sum(rhs),rhsMax =   3.03560261908028E-03  1.30828451609793E-02
 cg2d: Sum(rhs),rhsMax =   3.03589816156472E-03  1.30828353927742E-02
 cg2d: Sum(rhs),rhsMax =   3.03619083532313E-03  1.30828254090414E-02
 cg2d: Sum(rhs),rhsMax =   3.03648093350170E-03  1.30828152107771E-02
 cg2d: Sum(rhs),rhsMax =   3.03676923365308E-03  1.30828047989116E-02
 cg2d: Sum(rhs),rhsMax =   3.03705608339366E-03  1.30827941724456E-02
 cg2d: Sum(rhs),rhsMax =   3.03734210526023E-03  1.30827833320270E-02
 cg2d: Sum(rhs),rhsMax =   3.03762789164295E-03  1.30827722753873E-02
 cg2d: Sum(rhs),rhsMax =   3.03788434191535E-03  1.30827610030163E-02
 cg2d: Sum(rhs),rhsMax =   3.03814137436259E-03  1.30827495162064E-02
 cg2d: Sum(rhs),rhsMax =   3.03839980097268E-03  1.30827378148780E-02
 cg2d: Sum(rhs),rhsMax =   3.03865987027845E-03  1.30827258972583E-02
 cg2d: Sum(rhs),rhsMax =   3.03892225950444E-03  1.30827137642214E-02
 cg2d: Sum(rhs),rhsMax =   3.03918725490644E-03  1.30827014153198E-02
 cg2d: Sum(rhs),rhsMax =   3.03945552077704E-03  1.30826888508034E-02
 cg2d: Sum(rhs),rhsMax =   3.03972730338312E-03  1.30826760696191E-02
 cg2d: Sum(rhs),rhsMax =   3.04000333518495E-03  1.30826630728760E-02
 cg2d: Sum(rhs),rhsMax =   3.04028377067922E-03  1.30826498598462E-02
 cg2d: Sum(rhs),rhsMax =   3.04056930062967E-03  1.30826364292858E-02
 cg2d: Sum(rhs),rhsMax =   3.04086024723624E-03  1.30826227832982E-02
 cg2d: Sum(rhs),rhsMax =   3.04115710900061E-03  1.30826089202349E-02
 cg2d: Sum(rhs),rhsMax =   3.04146023967981E-03  1.30825948409652E-02
 cg2d: Sum(rhs),rhsMax =   3.04176999191747E-03  1.30825805434169E-02
 cg2d: Sum(rhs),rhsMax =   3.04208681752572E-03  1.30825660299226E-02
 cg2d: Sum(rhs),rhsMax =   3.04241119570493E-03  1.30825512990326E-02
 cg2d: Sum(rhs),rhsMax =   3.04274337015082E-03  1.30825363513288E-02
 cg2d: Sum(rhs),rhsMax =   3.04308372704706E-03  1.30825211858761E-02
 cg2d: Sum(rhs),rhsMax =   3.04343253147769E-03  1.30825058004067E-02
 cg2d: Sum(rhs),rhsMax =   3.04379037598174E-03  1.30824902014086E-02
 cg2d: Sum(rhs),rhsMax =   3.04415741019179E-03  1.30824743816434E-02
 cg2d: Sum(rhs),rhsMax =   3.04453400838146E-03  1.30824583454366E-02
 cg2d: Sum(rhs),rhsMax =   3.04492054064696E-03  1.30824420916464E-02
 cg2d: Sum(rhs),rhsMax =   3.04531725156560E-03  1.30824256188502E-02
(PID.TID 0000.0001)      cg2d_init_res =   1.69185907710212E-03
(PID.TID 0000.0001)      cg2d_iters(min,last) =      -1     328
(PID.TID 0000.0001)      cg2d_last_res =   9.94197560885784E-08
(PID.TID 0000.0001) // =======================================================
(PID.TID 0000.0001) // Begin MONITOR dynamic field statistics
(PID.TID 0000.0001) // =======================================================
(PID.TID 0000.0001) %MON time_tsnumber                =                 16848
(PID.TID 0000.0001) %MON time_secondsf                =   2.0217600000000E+07
(PID.TID 0000.0001) %MON dynstat_eta_max              =   1.3146879080248E-01
(PID.TID 0000.0001) %MON dynstat_eta_min              =  -3.3315768223850E-01
(PID.TID 0000.0001) %MON dynstat_eta_mean             =  -1.8961577731232E-07
(PID.TID 0000.0001) %MON dynstat_eta_sd               =   1.1779203010608E-01
(PID.TID 0000.0001) %MON dynstat_eta_del2             =   7.1449052882575E-07
(PID.TID 0000.0001) %MON dynstat_uvel_max             =   1.2650433083634E-01
(PID.TID 0000.0001) %MON dynstat_uvel_min             =  -1.2992405443811E-01
(PID.TID 0000.0001) %MON dynstat_uvel_mean            =  -5.7709402696240E-08
(PID.TID 0000.0001) %MON dynstat_uvel_sd              =   4.9344949112858E-02
(PID.TID 0000.0001) %MON dynstat_uvel_del2            =   1.0830125244053E-06
(PID.TID 0000.0001) %MON dynstat_vvel_max             =   1.5061318231813E-01
(PID.TID 0000.0001) %MON dynstat_vvel_min             =  -1.1910123877837E-01
(PID.TID 0000.0001) %MON dynstat_vvel_mean            =  -7.5468169891866E-08
(PID.TID 0000.0001) %MON dynstat_vvel_sd              =   4.6566570897943E-02
(PID.TID 0000.0001) %MON dynstat_vvel_del2            =   1.2915044426552E-06
(PID.TID 0000.0001) %MON dynstat_wvel_max             =   5.7731175818481E-09
(PID.TID 0000.0001) %MON dynstat_wvel_min             =  -8.7748975912109E-09
(PID.TID 0000.0001) %MON dynstat_wvel_mean            =  -5.7222238974136E-22
(PID.TID 0000.0001) %MON dynstat_wvel_sd              =   2.6650569382587E-09
(PID.TID 0000.0001) %MON dynstat_wvel_del2            =   2.7545270340741E-14
(PID.TID 0000.0001) %MON dynstat_theta_max            =   2.0000000000000E+01
(PID.TID 0000.0001) %MON dynstat_theta_min            =   2.0000000000000E+01
(PID.TID 0000.0001) %MON dynstat_theta_mean           =   1.9999999999999E+01
(PID.TID 0000.0001) %MON dynstat_theta_sd             =   1.1972645097557E-12
(PID.TID 0000.0001) %MON dynstat_theta_del2           =   0.0000000000000E+00
(PID.TID 0000.0001) %MON dynstat_salt_max             =   3.0000000000000E+01
(PID.TID 0000.0001) %MON dynstat_salt_min             =   3.0000000000000E+01
(PID.TID 0000.0001) %MON dynstat_salt_mean            =   2.9999999999998E+01
(PID.TID 0000.0001) %MON dynstat_salt_sd              =   2.1529444893531E-12
(PID.TID 0000.0001) %MON dynstat_salt_del2            =   0.0000000000000E+00
(PID.TID 0000.0001) %MON trAdv_CFL_u_max              =   3.1181350868410E-02
(PID.TID 0000.0001) %MON trAdv_CFL_v_max              =   3.6146082138553E-02
(PID.TID 0000.0001) %MON trAdv_CFL_w_max              =   1.5052874699683E-09
(PID.TID 0000.0001) %MON advcfl_uvel_max              =   3.1181773065147E-02
(PID.TID 0000.0001) %MON advcfl_vvel_max              =   3.6147163756352E-02
(PID.TID 0000.0001) %MON advcfl_wvel_max              =   4.2119508437812E-09
(PID.TID 0000.0001) %MON advcfl_W_hf_max              =   0.0000000000000E+00
(PID.TID 0000.0001) %MON pe_b_mean                    =   1.4195986914971E-05
(PID.TID 0000.0001) %MON ke_max                       =   1.1381285706116E-02
(PID.TID 0000.0001) %MON ke_mean                      =   2.2913240049996E-03
(PID.TID 0000.0001) %MON ke_vol                       =   7.2529629296391E+15
(PID.TID 0000.0001) %MON vort_r_min                   =  -4.2479169182353E-06
(PID.TID 0000.0001) %MON vort_r_max                   =   3.4329592661441E-06
(PID.TID 0000.0001) %MON vort_a_mean                  =   1.0615000000000E-04
(PID.TID 0000.0001) %MON vort_a_sd                    =   3.6396074288289E-06
(PID.TID 0000.0001) %MON vort_p_mean                  =   1.1210870169429E-04
(PID.TID 0000.0001) %MON vort_p_sd                    =   2.1069288561303E-05
(PID.TID 0000.0001) %MON surfExpan_theta_mean         =  -1.1341509487717E-20
(PID.TID 0000.0001) %MON surfExpan_salt_mean          =  -1.6997822296880E-20
(PID.TID 0000.0001) // =======================================================
(PID.TID 0000.0001) // End MONITOR dynamic field statistics
(PID.TID 0000.0001) // =======================================================
 cg2d: Sum(rhs),rhsMax =   3.04572439206965E-03  1.30824089288698E-02
 cg2d: Sum(rhs),rhsMax =   3.04614225864472E-03  1.30823920182621E-02
 cg2d: Sum(rhs),rhsMax =   3.04654136902183E-03  1.30823748893365E-02
 cg2d: Sum(rhs),rhsMax =   3.04695142978161E-03  1.30823575426289E-02
 cg2d: Sum(rhs),rhsMax =   3.04737290976264E-03  1.30823399779139E-02
 cg2d: Sum(rhs),rhsMax =   3.04780593989852E-03  1.30823221941782E-02
 cg2d: Sum(rhs),rhsMax =   3.04825069699071E-03  1.30823041923333E-02
 cg2d: Sum(rhs),rhsMax =   3.04870749733568E-03  1.30822859708750E-02
 cg2d: Sum(rhs),rhsMax =   3.04917642599189E-03  1.30822675318755E-02
 cg2d: Sum(rhs),rhsMax =   3.04965781078225E-03  1.30822488718792E-02
 cg2d: Sum(rhs),rhsMax =   3.05015178721425E-03  1.30822299921309E-02
 cg2d: Sum(rhs),rhsMax =   3.05065853190471E-03  1.30822108937480E-02
 cg2d: Sum(rhs),rhsMax =   3.05117810997940E-03  1.30821915759101E-02
 cg2d: Sum(rhs),rhsMax =   3.05171083455177E-03  1.30821720399562E-02
 cg2d: Sum(rhs),rhsMax =   3.05225681720360E-03  1.30821522834515E-02
 cg2d: Sum(rhs),rhsMax =   3.05278507502619E-03  1.30821323067294E-02
 cg2d: Sum(rhs),rhsMax =   3.05332648821408E-03  1.30821121097824E-02
 cg2d: Sum(rhs),rhsMax =   3.05388133308482E-03  1.30820916949143E-02
 cg2d: Sum(rhs),rhsMax =   3.05444934391975E-03  1.30820710580259E-02
 cg2d: Sum(rhs),rhsMax =   3.05503110053279E-03  1.30820502016922E-02
 cg2d: Sum(rhs),rhsMax =   3.05562651367193E-03  1.30820291257963E-02
 cg2d: Sum(rhs),rhsMax =   3.05623568123499E-03  1.30820078296328E-02
 cg2d: Sum(rhs),rhsMax =   3.05685868299716E-03  1.30819863137736E-02
 cg2d: Sum(rhs),rhsMax =   3.05749553090754E-03  1.30819645760476E-02
 cg2d: Sum(rhs),rhsMax =   3.05811429541957E-03  1.30819426173991E-02
 cg2d: Sum(rhs),rhsMax =   3.05874663446718E-03  1.30819204386595E-02
 cg2d: Sum(rhs),rhsMax =   3.05939277864078E-03  1.30818980400225E-02
 cg2d: Sum(rhs),rhsMax =   3.06005266749758E-03  1.30818754208733E-02
 cg2d: Sum(rhs),rhsMax =   3.06072635304458E-03  1.30818525813061E-02
 cg2d: Sum(rhs),rhsMax =   3.06141378524775E-03  1.30818295218526E-02
 cg2d: Sum(rhs),rhsMax =   3.06208279652496E-03  1.30818062391634E-02
 cg2d: Sum(rhs),rhsMax =   3.06276541091636E-03  1.30817827380731E-02
 cg2d: Sum(rhs),rhsMax =   3.06346152641017E-03  1.30817590133297E-02
 cg2d: Sum(rhs),rhsMax =   3.06417115241540E-03  1.30817350698243E-02
 cg2d: Sum(rhs),rhsMax =   3.06489437627122E-03  1.30817109033343E-02
 cg2d: Sum(rhs),rhsMax =   3.06563104581827E-03  1.30816865171962E-02
 cg2d: Sum(rhs),rhsMax =   3.06634849897735E-03  1.30816619112985E-02
 cg2d: Sum(rhs),rhsMax =   3.06707904991758E-03  1.30816370810465E-02
 cg2d: Sum(rhs),rhsMax =   3.06782282624573E-03  1.30816120299214E-02
 cg2d: Sum(rhs),rhsMax =   3.06857968403078E-03  1.30815867574449E-02
 cg2d: Sum(rhs),rhsMax =   3.06934943037968E-03  1.30815612650049E-02
 cg2d: Sum(rhs),rhsMax =   3.07009971427044E-03  1.30815355534421E-02
 cg2d: Sum(rhs),rhsMax =   3.07086264235153E-03  1.30815096165667E-02
 cg2d: Sum(rhs),rhsMax =   3.07163802706283E-03  1.30814834584385E-02
 cg2d: Sum(rhs),rhsMax =   3.07242616812774E-03  1.30814570778528E-02
 cg2d: Sum(rhs),rhsMax =   3.07322661192843E-03  1.30814304769776E-02
 cg2d: Sum(rhs),rhsMax =   3.07403975852157E-03  1.30814036548045E-02
 cg2d: Sum(rhs),rhsMax =   3.07486530314055E-03  1.30813766112842E-02
 cg2d: Sum(rhs),rhsMax =   3.07566970295273E-03  1.30813493463505E-02
 cg2d: Sum(rhs),rhsMax =   3.07648589365570E-03  1.30813218600685E-02
 cg2d: Sum(rhs),rhsMax =   3.07731417001082E-03  1.30812941463089E-02
 cg2d: Sum(rhs),rhsMax =   3.07815410496193E-03  1.30812662150597E-02
 cg2d: Sum(rhs),rhsMax =   3.07900594291424E-03  1.30812380605505E-02
 cg2d: Sum(rhs),rhsMax =   3.07986939368236E-03  1.30812096860079E-02
 cg2d: Sum(rhs),rhsMax =   3.08074422492864E-03  1.30811810883983E-02
 cg2d: Sum(rhs),rhsMax =   3.08163098789452E-03  1.30811522654793E-02
 cg2d: Sum(rhs),rhsMax =   3.08249473650508E-03  1.30811232259398E-02
 cg2d: Sum(rhs),rhsMax =   3.08336948435150E-03  1.30810939634473E-02
 cg2d: Sum(rhs),rhsMax =   3.08425530936227E-03  1.30810644760150E-02
 cg2d: Sum(rhs),rhsMax =   3.08515186301240E-03  1.30810347675331E-02
 cg2d: Sum(rhs),rhsMax =   3.08605944170881E-03  1.30810048354805E-02
 cg2d: Sum(rhs),rhsMax =   3.08697774755136E-03  1.30809746822156E-02
 cg2d: Sum(rhs),rhsMax =   3.08790683988870E-03  1.30809443058124E-02
 cg2d: Sum(rhs),rhsMax =   3.08884652349364E-03  1.30809137069729E-02
 cg2d: Sum(rhs),rhsMax =   3.08979677296068E-03  1.30808828861801E-02
 cg2d: Sum(rhs),rhsMax =   3.09072199873321E-03  1.30808518442107E-02
 cg2d: Sum(rhs),rhsMax =   3.09165716424087E-03  1.30808205809873E-02
 cg2d: Sum(rhs),rhsMax =   3.09260234313928E-03  1.30807890927010E-02
 cg2d: Sum(rhs),rhsMax =   3.09355740153430E-03  1.30807573824323E-02
 cg2d: Sum(rhs),rhsMax =   3.09452190032906E-03  1.30807254512882E-02
 cg2d: Sum(rhs),rhsMax =   3.09549649429127E-03  1.30806932959645E-02
 cg2d: Sum(rhs),rhsMax =   3.09648064950194E-03  1.30806609204307E-02
(PID.TID 0000.0001)      cg2d_init_res =   1.68029366563057E-03
(PID.TID 0000.0001)      cg2d_iters(min,last) =      -1     337
(PID.TID 0000.0001)      cg2d_last_res =   9.83744901173107E-08
(PID.TID 0000.0001) // =======================================================
(PID.TID 0000.0001) // Begin MONITOR dynamic field statistics
(PID.TID 0000.0001) // =======================================================
(PID.TID 0000.0001) %MON time_tsnumber                =                 16920
(PID.TID 0000.0001) %MON time_secondsf                =   2.0304000000000E+07
(PID.TID 0000.0001) %MON dynstat_eta_max              =   1.3179737625969E-01
(PID.TID 0000.0001) %MON dynstat_eta_min              =  -3.3384688663893E-01
(PID.TID 0000.0001) %MON dynstat_eta_mean             =  -1.9281130493195E-07
(PID.TID 0000.0001) %MON dynstat_eta_sd               =   1.1795568331222E-01
(PID.TID 0000.0001) %MON dynstat_eta_del2             =   7.1557152014958E-07
(PID.TID 0000.0001) %MON dynstat_uvel_max             =   1.2682237820956E-01
(PID.TID 0000.0001) %MON dynstat_uvel_min             =  -1.3004625873736E-01
(PID.TID 0000.0001) %MON dynstat_uvel_mean            =  -6.7468508344679E-08
(PID.TID 0000.0001) %MON dynstat_uvel_sd              =   4.9430556159455E-02
(PID.TID 0000.0001) %MON dynstat_uvel_del2            =   1.0842465306499E-06
(PID.TID 0000.0001) %MON dynstat_vvel_max             =   1.5094106182663E-01
(PID.TID 0000.0001) %MON dynstat_vvel_min             =  -1.1923851742169E-01
(PID.TID 0000.0001) %MON dynstat_vvel_mean            =  -6.4050797267817E-08
(PID.TID 0000.0001) %MON dynstat_vvel_sd              =   4.6631451603791E-02
(PID.TID 0000.0001) %MON dynstat_vvel_del2            =   1.2935874870001E-06
(PID.TID 0000.0001) %MON dynstat_wvel_max             =   5.5699714645743E-09
(PID.TID 0000.0001) %MON dynstat_wvel_min             =  -8.7285545654595E-09
(PID.TID 0000.0001) %MON dynstat_wvel_mean            =   8.8448474343509E-21
(PID.TID 0000.0001) %MON dynstat_wvel_sd              =   2.6579423063292E-09
(PID.TID 0000.0001) %MON dynstat_wvel_del2            =   2.7307399450993E-14
(PID.TID 0000.0001) %MON dynstat_theta_max            =   2.0000000000000E+01
(PID.TID 0000.0001) %MON dynstat_theta_min            =   2.0000000000000E+01
(PID.TID 0000.0001) %MON dynstat_theta_mean           =   1.9999999999999E+01
(PID.TID 0000.0001) %MON dynstat_theta_sd             =   1.1972645097557E-12
(PID.TID 0000.0001) %MON dynstat_theta_del2           =   0.0000000000000E+00
(PID.TID 0000.0001) %MON dynstat_salt_max             =   3.0000000000000E+01
(PID.TID 0000.0001) %MON dynstat_salt_min             =   3.0000000000000E+01
(PID.TID 0000.0001) %MON dynstat_salt_mean            =   2.9999999999998E+01
(PID.TID 0000.0001) %MON dynstat_salt_sd              =   2.1529444893531E-12
(PID.TID 0000.0001) %MON dynstat_salt_del2            =   0.0000000000000E+00
(PID.TID 0000.0001) %MON trAdv_CFL_u_max              =   3.1210709205500E-02
(PID.TID 0000.0001) %MON trAdv_CFL_v_max              =   3.6224750060307E-02
(PID.TID 0000.0001) %MON trAdv_CFL_w_max              =   1.4282976155835E-09
(PID.TID 0000.0001) %MON advcfl_uvel_max              =   3.1211102096967E-02
(PID.TID 0000.0001) %MON advcfl_vvel_max              =   3.6225854838391E-02
(PID.TID 0000.0001) %MON advcfl_wvel_max              =   4.1897061914206E-09
(PID.TID 0000.0001) %MON advcfl_W_hf_max              =   0.0000000000000E+00
(PID.TID 0000.0001) %MON pe_b_mean                    =   1.4235460428444E-05
(PID.TID 0000.0001) %MON ke_max                       =   1.1428513573883E-02
(PID.TID 0000.0001) %MON ke_mean                      =   2.2985426804478E-03
(PID.TID 0000.0001) %MON ke_vol                       =   7.2529629296391E+15
(PID.TID 0000.0001) %MON vort_r_min                   =  -4.2543090766118E-06
(PID.TID 0000.0001) %MON vort_r_max                   =   3.4445771433736E-06
(PID.TID 0000.0001) %MON vort_a_mean                  =   1.0615000000000E-04
(PID.TID 0000.0001) %MON vort_a_sd                    =   3.6398447930156E-06
(PID.TID 0000.0001) %MON vort_p_mean                  =   1.1210870169429E-04
(PID.TID 0000.0001) %MON vort_p_sd                    =   2.1069354346884E-05
(PID.TID 0000.0001) %MON surfExpan_theta_mean         =   1.7687963152676E-19
(PID.TID 0000.0001) %MON surfExpan_salt_mean          =   2.6534255437098E-19
(PID.TID 0000.0001) // =======================================================
(PID.TID 0000.0001) // End MONITOR dynamic field statistics
(PID.TID 0000.0001) // =======================================================
 cg2d: Sum(rhs),rhsMax =   3.09747451338034E-03  1.30806283190115E-02
 cg2d: Sum(rhs),rhsMax =   3.09847781185154E-03  1.30805954978451E-02
 cg2d: Sum(rhs),rhsMax =   3.09949056092840E-03  1.30805624511333E-02
 cg2d: Sum(rhs),rhsMax =   3.10051258239543E-03  1.30805291849478E-02
 cg2d: Sum(rhs),rhsMax =   3.10150712431801E-03  1.30804956922665E-02
 cg2d: Sum(rhs),rhsMax =   3.10251048256105E-03  1.30804619822040E-02
 cg2d: Sum(rhs),rhsMax =   3.10352266970608E-03  1.30804280468658E-02
 cg2d: Sum(rhs),rhsMax =   3.10454337644781E-03  1.30803938890921E-02
 cg2d: Sum(rhs),rhsMax =   3.10557282184079E-03  1.30803595097486E-02
 cg2d: Sum(rhs),rhsMax =   3.10661049777415E-03  1.30803249052523E-02
 cg2d: Sum(rhs),rhsMax =   3.10765683792153E-03  1.30802900821300E-02
 cg2d: Sum(rhs),rhsMax =   3.10871153504244E-03  1.30802550347587E-02
 cg2d: Sum(rhs),rhsMax =   3.10977448793935E-03  1.30802197654574E-02
 cg2d: Sum(rhs),rhsMax =   3.11084563762958E-03  1.30801842725565E-02
 cg2d: Sum(rhs),rhsMax =   3.11192494911914E-03  1.30801485575957E-02
 cg2d: Sum(rhs),rhsMax =   3.11301238681359E-03  1.30801126217430E-02
 cg2d: Sum(rhs),rhsMax =   3.11407010035445E-03  1.30800764530993E-02
 cg2d: Sum(rhs),rhsMax =   3.11513533213816E-03  1.30800400739820E-02
 cg2d: Sum(rhs),rhsMax =   3.11620818646013E-03  1.30800034680206E-02
 cg2d: Sum(rhs),rhsMax =   3.11728845869091E-03  1.30799666420743E-02
 cg2d: Sum(rhs),rhsMax =   3.11837605036251E-03  1.30799295926083E-02
 cg2d: Sum(rhs),rhsMax =   3.11947103268452E-03  1.30798923209103E-02
 cg2d: Sum(rhs),rhsMax =   3.12057302620080E-03  1.30798548266180E-02
 cg2d: Sum(rhs),rhsMax =   3.12168233996390E-03  1.30798171111049E-02
 cg2d: Sum(rhs),rhsMax =   3.12279867700483E-03  1.30797791726662E-02
 cg2d: Sum(rhs),rhsMax =   3.12392208864814E-03  1.30797410117985E-02
 cg2d: Sum(rhs),rhsMax =   3.12505247753411E-03  1.30797026282493E-02
 cg2d: Sum(rhs),rhsMax =   3.12618967283873E-03  1.30796640232254E-02
 cg2d: Sum(rhs),rhsMax =   3.12729574900703E-03  1.30796251910235E-02
 cg2d: Sum(rhs),rhsMax =   3.12840815378009E-03  1.30795861420786E-02
 cg2d: Sum(rhs),rhsMax =   3.12952706998073E-03  1.30795468710161E-02
 cg2d: Sum(rhs),rhsMax =   3.13065196212100E-03  1.30795073773217E-02
 cg2d: Sum(rhs),rhsMax =   3.13178336411393E-03  1.30794676598972E-02
 cg2d: Sum(rhs),rhsMax =   3.13292093942887E-03  1.30794277230849E-02
 cg2d: Sum(rhs),rhsMax =   3.13406468272370E-03  1.30793875624979E-02
 cg2d: Sum(rhs),rhsMax =   3.13521433150588E-03  1.30793471804138E-02
 cg2d: Sum(rhs),rhsMax =   3.13637007157385E-03  1.30793065774647E-02
 cg2d: Sum(rhs),rhsMax =   3.13753169477960E-03  1.30792657518887E-02
 cg2d: Sum(rhs),rhsMax =   3.13869911140813E-03  1.30792247039429E-02
 cg2d: Sum(rhs),rhsMax =   3.13987244217348E-03  1.30791834362941E-02
 cg2d: Sum(rhs),rhsMax =   3.14101309541624E-03  1.30791419394528E-02
 cg2d: Sum(rhs),rhsMax =   3.14215934883019E-03  1.30791002248121E-02
 cg2d: Sum(rhs),rhsMax =   3.14331114953563E-03  1.30790582904002E-02
 cg2d: Sum(rhs),rhsMax =   3.14446817012145E-03  1.30790161343644E-02
 cg2d: Sum(rhs),rhsMax =   3.14563056456150E-03  1.30789737579872E-02
 cg2d: Sum(rhs),rhsMax =   3.14679775214491E-03  1.30789311604046E-02
 cg2d: Sum(rhs),rhsMax =   3.14797037358243E-03  1.30788883387616E-02
 cg2d: Sum(rhs),rhsMax =   3.14914790596549E-03  1.30788452987438E-02
 cg2d: Sum(rhs),rhsMax =   3.15033053475454E-03  1.30788020360120E-02
 cg2d: Sum(rhs),rhsMax =   3.15151816333484E-03  1.30787585540316E-02
 cg2d: Sum(rhs),rhsMax =   3.15271060201783E-03  1.30787148476582E-02
 cg2d: Sum(rhs),rhsMax =   3.15390783464525E-03  1.30786709228437E-02
 cg2d: Sum(rhs),rhsMax =   3.15507161079571E-03  1.30786267764585E-02
 cg2d: Sum(rhs),rhsMax =   3.15623987725915E-03  1.30785824104350E-02
 cg2d: Sum(rhs),rhsMax =   3.15741265250168E-03  1.30785378200360E-02
 cg2d: Sum(rhs),rhsMax =   3.15858972024183E-03  1.30784930110973E-02
 cg2d: Sum(rhs),rhsMax =   3.15977108121863E-03  1.30784479796490E-02
 cg2d: Sum(rhs),rhsMax =   3.16095687181356E-03  1.30784027285836E-02
 cg2d: Sum(rhs),rhsMax =   3.16214681784193E-03  1.30783572567722E-02
 cg2d: Sum(rhs),rhsMax =   3.16334106572722E-03  1.30783115643111E-02
 cg2d: Sum(rhs),rhsMax =   3.16453944288941E-03  1.30782656512776E-02
 cg2d: Sum(rhs),rhsMax =   3.16574193675392E-03  1.30782195186242E-02
 cg2d: Sum(rhs),rhsMax =   3.16694813141563E-03  1.30781731623549E-02
 cg2d: Sum(rhs),rhsMax =   3.16811995385513E-03  1.30781265894566E-02
 cg2d: Sum(rhs),rhsMax =   3.16929548102523E-03  1.30780797958704E-02
 cg2d: Sum(rhs),rhsMax =   3.17047487249803E-03  1.30780327811760E-02
 cg2d: Sum(rhs),rhsMax =   3.17165774471171E-03  1.30779855477827E-02
 cg2d: Sum(rhs),rhsMax =   3.17284436032972E-03  1.30779380936270E-02
 cg2d: Sum(rhs),rhsMax =   3.17403437237998E-03  1.30778904207323E-02
 cg2d: Sum(rhs),rhsMax =   3.17522783817153E-03  1.30778425275375E-02
 cg2d: Sum(rhs),rhsMax =   3.17642490400275E-03  1.30777944145024E-02
 cg2d: Sum(rhs),rhsMax =   3.17762528001744E-03  1.30777460812943E-02
(PID.TID 0000.0001)      cg2d_init_res =   1.66734317350053E-03
(PID.TID 0000.0001)      cg2d_iters(min,last) =      -1     344
(PID.TID 0000.0001)      cg2d_last_res =   9.77285751728823E-08
(PID.TID 0000.0001) // =======================================================
(PID.TID 0000.0001) // Begin MONITOR dynamic field statistics
(PID.TID 0000.0001) // =======================================================
(PID.TID 0000.0001) %MON time_tsnumber                =                 16992
(PID.TID 0000.0001) %MON time_secondsf                =   2.0390400000000E+07
(PID.TID 0000.0001) %MON dynstat_eta_max              =   1.3214495301859E-01
(PID.TID 0000.0001) %MON dynstat_eta_min              =  -3.3454013175053E-01
(PID.TID 0000.0001) %MON dynstat_eta_mean             =  -1.9782868192755E-07
(PID.TID 0000.0001) %MON dynstat_eta_sd               =   1.1811780914646E-01
(PID.TID 0000.0001) %MON dynstat_eta_del2             =   7.1663774179204E-07
(PID.TID 0000.0001) %MON dynstat_uvel_max             =   1.2712983220617E-01
(PID.TID 0000.0001) %MON dynstat_uvel_min             =  -1.3015969002486E-01
(PID.TID 0000.0001) %MON dynstat_uvel_mean            =  -7.4692090969553E-08
(PID.TID 0000.0001) %MON dynstat_uvel_sd              =   4.9512476693167E-02
(PID.TID 0000.0001) %MON dynstat_uvel_del2            =   1.0852980584307E-06
(PID.TID 0000.0001) %MON dynstat_vvel_max             =   1.5127660528642E-01
(PID.TID 0000.0001) %MON dynstat_vvel_min             =  -1.1937932754289E-01
(PID.TID 0000.0001) %MON dynstat_vvel_mean            =  -5.1307685969867E-08
(PID.TID 0000.0001) %MON dynstat_vvel_sd              =   4.6699595280472E-02
(PID.TID 0000.0001) %MON dynstat_vvel_del2            =   1.2956516163330E-06
(PID.TID 0000.0001) %MON dynstat_wvel_max             =   5.6466109352186E-09
(PID.TID 0000.0001) %MON dynstat_wvel_min             =  -8.6594290053472E-09
(PID.TID 0000.0001) %MON dynstat_wvel_mean            =   7.2530368703485E-21
(PID.TID 0000.0001) %MON dynstat_wvel_sd              =   2.6531589082651E-09
(PID.TID 0000.0001) %MON dynstat_wvel_del2            =   2.7226153588160E-14
(PID.TID 0000.0001) %MON dynstat_theta_max            =   2.0000000000000E+01
(PID.TID 0000.0001) %MON dynstat_theta_min            =   2.0000000000000E+01
(PID.TID 0000.0001) %MON dynstat_theta_mean           =   1.9999999999999E+01
(PID.TID 0000.0001) %MON dynstat_theta_sd             =   1.1972645097557E-12
(PID.TID 0000.0001) %MON dynstat_theta_del2           =   0.0000000000000E+00
(PID.TID 0000.0001) %MON dynstat_salt_max             =   3.0000000000000E+01
(PID.TID 0000.0001) %MON dynstat_salt_min             =   3.0000000000000E+01
(PID.TID 0000.0001) %MON dynstat_salt_mean            =   2.9999999999998E+01
(PID.TID 0000.0001) %MON dynstat_salt_sd              =   2.1529444893531E-12
(PID.TID 0000.0001) %MON dynstat_salt_del2            =   0.0000000000000E+00
(PID.TID 0000.0001) %MON trAdv_CFL_u_max              =   3.1237961796297E-02
(PID.TID 0000.0001) %MON trAdv_CFL_v_max              =   3.6305252833625E-02
(PID.TID 0000.0001) %MON trAdv_CFL_w_max              =   1.4239274294204E-09
(PID.TID 0000.0001) %MON advcfl_uvel_max              =   3.1238325605967E-02
(PID.TID 0000.0001) %MON advcfl_vvel_max              =   3.6306385268742E-02
(PID.TID 0000.0001) %MON advcfl_wvel_max              =   4.1565259225667E-09
(PID.TID 0000.0001) %MON advcfl_W_hf_max              =   0.0000000000000E+00
(PID.TID 0000.0001) %MON pe_b_mean                    =   1.4274619575682E-05
(PID.TID 0000.0001) %MON ke_max                       =   1.1477275277292E-02
(PID.TID 0000.0001) %MON ke_mean                      =   2.3057428167129E-03
(PID.TID 0000.0001) %MON ke_vol                       =   7.2529629296391E+15
(PID.TID 0000.0001) %MON vort_r_min                   =  -4.2603178269901E-06
(PID.TID 0000.0001) %MON vort_r_max                   =   3.4563729626340E-06
(PID.TID 0000.0001) %MON vort_a_mean                  =   1.0615000000000E-04
(PID.TID 0000.0001) %MON vort_a_sd                    =   3.6400783091243E-06
(PID.TID 0000.0001) %MON vort_p_mean                  =   1.1210870169429E-04
(PID.TID 0000.0001) %MON vort_p_sd                    =   2.1069426222629E-05
(PID.TID 0000.0001) %MON surfExpan_theta_mean         =   1.4511373573243E-19
(PID.TID 0000.0001) %MON surfExpan_salt_mean          =   2.1766532936048E-19
(PID.TID 0000.0001) // =======================================================
(PID.TID 0000.0001) // End MONITOR dynamic field statistics
(PID.TID 0000.0001) // =======================================================
 cg2d: Sum(rhs),rhsMax =   3.17878988387761E-03  1.30776975326218E-02
 cg2d: Sum(rhs),rhsMax =   3.17995748328104E-03  1.30776487618714E-02
 cg2d: Sum(rhs),rhsMax =   3.18112828461959E-03  1.30775997701624E-02
 cg2d: Sum(rhs),rhsMax =   3.18230195402688E-03  1.30775505589280E-02
 cg2d: Sum(rhs),rhsMax =   3.18347876653739E-03  1.30775011310037E-02
 cg2d: Sum(rhs),rhsMax =   3.18465855498990E-03  1.30774514836652E-02
 cg2d: Sum(rhs),rhsMax =   3.18584136678987E-03  1.30774016155185E-02
 cg2d: Sum(rhs),rhsMax =   3.18702700043354E-03  1.30773515299560E-02
 cg2d: Sum(rhs),rhsMax =   3.18817469807706E-03  1.30773012206150E-02
 cg2d: Sum(rhs),rhsMax =   3.18932497043012E-03  1.30772507004398E-02
 cg2d: Sum(rhs),rhsMax =   3.19047800475617E-03  1.30771999564013E-02
 cg2d: Sum(rhs),rhsMax =   3.19163343737914E-03  1.30771489977637E-02
 cg2d: Sum(rhs),rhsMax =   3.19245834106658E-03  1.30770978145559E-02
 cg2d: Sum(rhs),rhsMax =   3.19328426495464E-03  1.30770464192784E-02
 cg2d: Sum(rhs),rhsMax =   3.19411141582391E-03  1.30769948045657E-02
 cg2d: Sum(rhs),rhsMax =   3.19493925560575E-03  1.30769429724253E-02
 cg2d: Sum(rhs),rhsMax =   3.19576844924843E-03  1.30768909228199E-02
 cg2d: Sum(rhs),rhsMax =   3.19659839975278E-03  1.30768386546611E-02
 cg2d: Sum(rhs),rhsMax =   3.19742949926145E-03  1.30767861698640E-02
 cg2d: Sum(rhs),rhsMax =   3.19826145238754E-03  1.30767334668076E-02
 cg2d: Sum(rhs),rhsMax =   3.19909441599587E-03  1.30766805461633E-02
 cg2d: Sum(rhs),rhsMax =   3.19992829812579E-03  1.30766274086918E-02
 cg2d: Sum(rhs),rhsMax =   3.20076309069197E-03  1.30765740549962E-02
 cg2d: Sum(rhs),rhsMax =   3.20159853240295E-03  1.30765204834913E-02
 cg2d: Sum(rhs),rhsMax =   3.20243502912086E-03  1.30764666949257E-02
 cg2d: Sum(rhs),rhsMax =   3.20327225905179E-03  1.30764126898344E-02
 cg2d: Sum(rhs),rhsMax =   3.20411039008965E-03  1.30763584689403E-02
 cg2d: Sum(rhs),rhsMax =   3.20494929019248E-03  1.30763040314843E-02
 cg2d: Sum(rhs),rhsMax =   3.20578898022253E-03  1.30762493769357E-02
 cg2d: Sum(rhs),rhsMax =   3.20658759016464E-03  1.30761945088313E-02
 cg2d: Sum(rhs),rhsMax =   3.20738685701610E-03  1.30761394225920E-02
 cg2d: Sum(rhs),rhsMax =   3.20818676883152E-03  1.30760841179385E-02
 cg2d: Sum(rhs),rhsMax =   3.20898720249778E-03  1.30760286016316E-02
 cg2d: Sum(rhs),rhsMax =   3.20978818153240E-03  1.30759728683866E-02
 cg2d: Sum(rhs),rhsMax =   3.21058975428424E-03  1.30759169183748E-02
 cg2d: Sum(rhs),rhsMax =   3.21139183867581E-03  1.30758607521600E-02
 cg2d: Sum(rhs),rhsMax =   3.21219441413726E-03  1.30758043724103E-02
 cg2d: Sum(rhs),rhsMax =   3.21299747414849E-03  1.30757477761278E-02
 cg2d: Sum(rhs),rhsMax =   3.21380100315093E-03  1.30756909671617E-02
 cg2d: Sum(rhs),rhsMax =   3.21460478346822E-03  1.30756339424374E-02
 cg2d: Sum(rhs),rhsMax =   3.21540909293638E-03  1.30755767033926E-02
 cg2d: Sum(rhs),rhsMax =   3.21621377808212E-03  1.30755192501477E-02
 cg2d: Sum(rhs),rhsMax =   3.21701894161227E-03  1.30754615821572E-02
 cg2d: Sum(rhs),rhsMax =   3.21782441642332E-03  1.30754037007048E-02
 cg2d: Sum(rhs),rhsMax =   3.21863024174248E-03  1.30753456031464E-02
 cg2d: Sum(rhs),rhsMax =   3.21943637928542E-03  1.30752872925290E-02
 cg2d: Sum(rhs),rhsMax =   3.22024282153768E-03  1.30752287686016E-02
 cg2d: Sum(rhs),rhsMax =   3.22104956150765E-03  1.30751700321367E-02
 cg2d: Sum(rhs),rhsMax =   3.22185657998251E-03  1.30751110800084E-02
 cg2d: Sum(rhs),rhsMax =   3.22266391235753E-03  1.30750519153012E-02
 cg2d: Sum(rhs),rhsMax =   3.22347134029038E-03  1.30749925379875E-02
 cg2d: Sum(rhs),rhsMax =   3.22427917771577E-03  1.30749329486105E-02
 cg2d: Sum(rhs),rhsMax =   3.22508711910714E-03  1.30748731455826E-02
 cg2d: Sum(rhs),rhsMax =   3.22589538096922E-03  1.30748131285459E-02
 cg2d: Sum(rhs),rhsMax =   3.22670381005730E-03  1.30747529008339E-02
 cg2d: Sum(rhs),rhsMax =   3.22751247937806E-03  1.30746924612807E-02
 cg2d: Sum(rhs),rhsMax =   3.22832136219090E-03  1.30746318084082E-02
 cg2d: Sum(rhs),rhsMax =   3.22885208485597E-03  1.30745709527813E-02
 cg2d: Sum(rhs),rhsMax =   3.22938237230734E-03  1.30745098758933E-02
 cg2d: Sum(rhs),rhsMax =   3.22991261612871E-03  1.30744485895391E-02
 cg2d: Sum(rhs),rhsMax =   3.23044226521367E-03  1.30743870912092E-02
 cg2d: Sum(rhs),rhsMax =   3.23097194086239E-03  1.30743253804384E-02
 cg2d: Sum(rhs),rhsMax =   3.23150109194149E-03  1.30742634589453E-02
 cg2d: Sum(rhs),rhsMax =   3.23203010192349E-03  1.30742013271893E-02
 cg2d: Sum(rhs),rhsMax =   3.23255876425934E-03  1.30741389843576E-02
 cg2d: Sum(rhs),rhsMax =   3.23308719684094E-03  1.30740764311945E-02
 cg2d: Sum(rhs),rhsMax =   3.23361521022697E-03  1.30740136679405E-02
 cg2d: Sum(rhs),rhsMax =   3.23414297131469E-03  1.30739506944907E-02
 cg2d: Sum(rhs),rhsMax =   3.23467025599891E-03  1.30738875102157E-02
 cg2d: Sum(rhs),rhsMax =   3.23519707415645E-03  1.30738241194327E-02
 cg2d: Sum(rhs),rhsMax =   3.23568410316939E-03  1.30737605117163E-02
 cg2d: Sum(rhs),rhsMax =   3.23617071857524E-03  1.30736967015363E-02
(PID.TID 0000.0001)      cg2d_init_res =   1.65358141745486E-03
(PID.TID 0000.0001)      cg2d_iters(min,last) =      -1     359
(PID.TID 0000.0001)      cg2d_last_res =   9.34517792859757E-08
(PID.TID 0000.0001) // =======================================================
(PID.TID 0000.0001) // Begin MONITOR dynamic field statistics
(PID.TID 0000.0001) // =======================================================
(PID.TID 0000.0001) %MON time_tsnumber                =                 17064
(PID.TID 0000.0001) %MON time_secondsf                =   2.0476800000000E+07
(PID.TID 0000.0001) %MON dynstat_eta_max              =   1.3250693361777E-01
(PID.TID 0000.0001) %MON dynstat_eta_min              =  -3.3523461699033E-01
(PID.TID 0000.0001) %MON dynstat_eta_mean             =  -2.0136737303884E-07
(PID.TID 0000.0001) %MON dynstat_eta_sd               =   1.1827810107766E-01
(PID.TID 0000.0001) %MON dynstat_eta_del2             =   7.1768500201043E-07
(PID.TID 0000.0001) %MON dynstat_uvel_max             =   1.2742327978364E-01
(PID.TID 0000.0001) %MON dynstat_uvel_min             =  -1.3026450893691E-01
(PID.TID 0000.0001) %MON dynstat_uvel_mean            =  -7.9076651709198E-08
(PID.TID 0000.0001) %MON dynstat_uvel_sd              =   4.9590070603692E-02
(PID.TID 0000.0001) %MON dynstat_uvel_del2            =   1.0861729556177E-06
(PID.TID 0000.0001) %MON dynstat_vvel_max             =   1.5162096035167E-01
(PID.TID 0000.0001) %MON dynstat_vvel_min             =  -1.1953181083218E-01
(PID.TID 0000.0001) %MON dynstat_vvel_mean            =  -3.7706186402627E-08
(PID.TID 0000.0001) %MON dynstat_vvel_sd              =   4.6771461153359E-02
(PID.TID 0000.0001) %MON dynstat_vvel_del2            =   1.2976339822281E-06
(PID.TID 0000.0001) %MON dynstat_wvel_max             =   5.6448135618120E-09
(PID.TID 0000.0001) %MON dynstat_wvel_min             =  -8.5587243596092E-09
(PID.TID 0000.0001) %MON dynstat_wvel_mean            =  -9.2482262792080E-22
(PID.TID 0000.0001) %MON dynstat_wvel_sd              =   2.6500915454060E-09
(PID.TID 0000.0001) %MON dynstat_wvel_del2            =   2.6836260751967E-14
(PID.TID 0000.0001) %MON dynstat_theta_max            =   2.0000000000000E+01
(PID.TID 0000.0001) %MON dynstat_theta_min            =   2.0000000000000E+01
(PID.TID 0000.0001) %MON dynstat_theta_mean           =   1.9999999999999E+01
(PID.TID 0000.0001) %MON dynstat_theta_sd             =   1.1972645097557E-12
(PID.TID 0000.0001) %MON dynstat_theta_del2           =   0.0000000000000E+00
(PID.TID 0000.0001) %MON dynstat_salt_max             =   3.0000000000000E+01
(PID.TID 0000.0001) %MON dynstat_salt_min             =   3.0000000000000E+01
(PID.TID 0000.0001) %MON dynstat_salt_mean            =   2.9999999999998E+01
(PID.TID 0000.0001) %MON dynstat_salt_sd              =   2.1529444893531E-12
(PID.TID 0000.0001) %MON dynstat_salt_del2            =   0.0000000000000E+00
(PID.TID 0000.0001) %MON trAdv_CFL_u_max              =   3.1263146579214E-02
(PID.TID 0000.0001) %MON trAdv_CFL_v_max              =   3.6387867240087E-02
(PID.TID 0000.0001) %MON trAdv_CFL_w_max              =   1.4223069268328E-09
(PID.TID 0000.0001) %MON advcfl_uvel_max              =   3.1263482144859E-02
(PID.TID 0000.0001) %MON advcfl_vvel_max              =   3.6389030484402E-02
(PID.TID 0000.0001) %MON advcfl_wvel_max              =   4.1081876926124E-09
(PID.TID 0000.0001) %MON advcfl_W_hf_max              =   0.0000000000000E+00
(PID.TID 0000.0001) %MON pe_b_mean                    =   1.4313388646908E-05
(PID.TID 0000.0001) %MON ke_max                       =   1.1527510605246E-02
(PID.TID 0000.0001) %MON ke_mean                      =   2.3129139573418E-03
(PID.TID 0000.0001) %MON ke_vol                       =   7.2529629296391E+15
(PID.TID 0000.0001) %MON vort_r_min                   =  -4.2659745444310E-06
(PID.TID 0000.0001) %MON vort_r_max                   =   3.4681363392919E-06
(PID.TID 0000.0001) %MON vort_a_mean                  =   1.0615000000000E-04
(PID.TID 0000.0001) %MON vort_a_sd                    =   3.6403067995881E-06
(PID.TID 0000.0001) %MON vort_p_mean                  =   1.1210870169429E-04
(PID.TID 0000.0001) %MON vort_p_sd                    =   2.1069504106754E-05
(PID.TID 0000.0001) %MON surfExpan_theta_mean         =  -1.8463712943386E-20
(PID.TID 0000.0001) %MON surfExpan_salt_mean          =  -2.7693737756232E-20
(PID.TID 0000.0001) // =======================================================
(PID.TID 0000.0001) // End MONITOR dynamic field statistics
(PID.TID 0000.0001) // =======================================================
 cg2d: Sum(rhs),rhsMax =   3.23665699950171E-03  1.30736326779063E-02
 cg2d: Sum(rhs),rhsMax =   3.23714290915181E-03  1.30735684480960E-02
 cg2d: Sum(rhs),rhsMax =   3.23762838544818E-03  1.30735040073191E-02
 cg2d: Sum(rhs),rhsMax =   3.23811358051726E-03  1.30734393614790E-02
 cg2d: Sum(rhs),rhsMax =   3.23859829459728E-03  1.30733745047730E-02
 cg2d: Sum(rhs),rhsMax =   3.23908271991500E-03  1.30733094411561E-02
 cg2d: Sum(rhs),rhsMax =   3.23956664686334E-03  1.30732441675341E-02
 cg2d: Sum(rhs),rhsMax =   3.24005027823561E-03  1.30731786890388E-02
 cg2d: Sum(rhs),rhsMax =   3.24053320740124E-03  1.30731130032335E-02
 cg2d: Sum(rhs),rhsMax =   3.24101591264213E-03  1.30730471076809E-02
 cg2d: Sum(rhs),rhsMax =   3.24149823596612E-03  1.30729810050781E-02
 cg2d: Sum(rhs),rhsMax =   3.24198020293911E-03  1.30729146967157E-02
 cg2d: Sum(rhs),rhsMax =   3.24246173674394E-03  1.30728481817216E-02
 cg2d: Sum(rhs),rhsMax =   3.24294281676567E-03  1.30727814585864E-02
 cg2d: Sum(rhs),rhsMax =   3.24342327999907E-03  1.30727145304346E-02
 cg2d: Sum(rhs),rhsMax =   3.24390352461815E-03  1.30726473967464E-02
 cg2d: Sum(rhs),rhsMax =   3.24438323325454E-03  1.30725800555053E-02
 cg2d: Sum(rhs),rhsMax =   3.24486257439721E-03  1.30725125083311E-02
 cg2d: Sum(rhs),rhsMax =   3.24534143692286E-03  1.30724447546869E-02
 cg2d: Sum(rhs),rhsMax =   3.24581992734392E-03  1.30723767972636E-02
 cg2d: Sum(rhs),rhsMax =   3.24629792748009E-03  1.30723086348599E-02
 cg2d: Sum(rhs),rhsMax =   3.24677544011704E-03  1.30722402681432E-02
 cg2d: Sum(rhs),rhsMax =   3.24725246814830E-03  1.30721716975188E-02
 cg2d: Sum(rhs),rhsMax =   3.24772909314342E-03  1.30721029242762E-02
 cg2d: Sum(rhs),rhsMax =   3.24820524835180E-03  1.30720339434554E-02
 cg2d: Sum(rhs),rhsMax =   3.24868096221005E-03  1.30719647606666E-02
 cg2d: Sum(rhs),rhsMax =   3.24915619373423E-03  1.30718953705293E-02
 cg2d: Sum(rhs),rhsMax =   3.24963097995470E-03  1.30718257798322E-02
 cg2d: Sum(rhs),rhsMax =   3.25010526470313E-03  1.30717559848867E-02
 cg2d: Sum(rhs),rhsMax =   3.25057910109239E-03  1.30716859888701E-02
 cg2d: Sum(rhs),rhsMax =   3.25105230933003E-03  1.30716157872376E-02
 cg2d: Sum(rhs),rhsMax =   3.25152515070092E-03  1.30715453864197E-02
 cg2d: Sum(rhs),rhsMax =   3.25199733601862E-03  1.30714747832810E-02
 cg2d: Sum(rhs),rhsMax =   3.25246924374861E-03  1.30714039766253E-02
 cg2d: Sum(rhs),rhsMax =   3.25294066690941E-03  1.30713329663670E-02
 cg2d: Sum(rhs),rhsMax =   3.25341160634894E-03  1.30712617563478E-02
 cg2d: Sum(rhs),rhsMax =   3.25388206546926E-03  1.30711903433011E-02
 cg2d: Sum(rhs),rhsMax =   3.25435191688909E-03  1.30711187318147E-02
 cg2d: Sum(rhs),rhsMax =   3.25482136206526E-03  1.30710469160512E-02
 cg2d: Sum(rhs),rhsMax =   3.25529024439541E-03  1.30709749003276E-02
 cg2d: Sum(rhs),rhsMax =   3.25575866571100E-03  1.30709026865837E-02
 cg2d: Sum(rhs),rhsMax =   3.25622657207537E-03  1.30708302749515E-02
 cg2d: Sum(rhs),rhsMax =   3.25669389288587E-03  1.30707576589051E-02
 cg2d: Sum(rhs),rhsMax =   3.25716078675743E-03  1.30706848457389E-02
 cg2d: Sum(rhs),rhsMax =   3.25762679372454E-03  1.30706118305019E-02
 cg2d: Sum(rhs),rhsMax =   3.25809251658344E-03  1.30705386207314E-02
 cg2d: Sum(rhs),rhsMax =   3.25855781810410E-03  1.30704652071107E-02
 cg2d: Sum(rhs),rhsMax =   3.25902257340305E-03  1.30703915977769E-02
 cg2d: Sum(rhs),rhsMax =   3.25948685803155E-03  1.30703177863607E-02
 cg2d: Sum(rhs),rhsMax =   3.25995064439250E-03  1.30702437816099E-02
 cg2d: Sum(rhs),rhsMax =   3.26041392381493E-03  1.30701695753380E-02
 cg2d: Sum(rhs),rhsMax =   3.26087656084356E-03  1.30700951746882E-02
 cg2d: Sum(rhs),rhsMax =   3.26133876696197E-03  1.30700205737579E-02
 cg2d: Sum(rhs),rhsMax =   3.26180042404689E-03  1.30699457807779E-02
 cg2d: Sum(rhs),rhsMax =   3.26226156451676E-03  1.30698707854600E-02
 cg2d: Sum(rhs),rhsMax =   3.26272214614226E-03  1.30697955998905E-02
 cg2d: Sum(rhs),rhsMax =   3.26318211807274E-03  1.30697202105177E-02
 cg2d: Sum(rhs),rhsMax =   3.26364163924737E-03  1.30696446299220E-02
 cg2d: Sum(rhs),rhsMax =   3.26410047368234E-03  1.30695688505349E-02
 cg2d: Sum(rhs),rhsMax =   3.26455890532835E-03  1.30694928796218E-02
 cg2d: Sum(rhs),rhsMax =   3.26501675363736E-03  1.30694167097088E-02
 cg2d: Sum(rhs),rhsMax =   3.26547384204237E-03  1.30693403478993E-02
 cg2d: Sum(rhs),rhsMax =   3.26593059035533E-03  1.30692637893986E-02
 cg2d: Sum(rhs),rhsMax =   3.26638674965840E-03  1.30691870399555E-02
 cg2d: Sum(rhs),rhsMax =   3.26684248078092E-03  1.30691100922809E-02
 cg2d: Sum(rhs),rhsMax =   3.26729763423928E-03  1.30690329546935E-02
 cg2d: Sum(rhs),rhsMax =   3.26775229737225E-03  1.30689556195299E-02
 cg2d: Sum(rhs),rhsMax =   3.26820634982890E-03  1.30688780951731E-02
 cg2d: Sum(rhs),rhsMax =   3.26865993960501E-03  1.30688003734690E-02
 cg2d: Sum(rhs),rhsMax =   3.26911251989101E-03  1.30687224645414E-02
 cg2d: Sum(rhs),rhsMax =   3.26956491567298E-03  1.30686443570949E-02
 cg2d: Sum(rhs),rhsMax =   3.27001662650079E-03  1.30685660622644E-02
(PID.TID 0000.0001)      cg2d_init_res =   1.63968783289777E-03
(PID.TID 0000.0001)      cg2d_iters(min,last) =      -1     359
(PID.TID 0000.0001)      cg2d_last_res =   9.87930672927988E-08
(PID.TID 0000.0001) // =======================================================
(PID.TID 0000.0001) // Begin MONITOR dynamic field statistics
(PID.TID 0000.0001) // =======================================================
(PID.TID 0000.0001) %MON time_tsnumber                =                 17136
(PID.TID 0000.0001) %MON time_secondsf                =   2.0563200000000E+07
(PID.TID 0000.0001) %MON dynstat_eta_max              =   1.3287784773536E-01
(PID.TID 0000.0001) %MON dynstat_eta_min              =  -3.3592740046838E-01
(PID.TID 0000.0001) %MON dynstat_eta_mean             =  -2.0339083045771E-07
(PID.TID 0000.0001) %MON dynstat_eta_sd               =   1.1843628141515E-01
(PID.TID 0000.0001) %MON dynstat_eta_del2             =   7.1870921530233E-07
(PID.TID 0000.0001) %MON dynstat_uvel_max             =   1.2770000983316E-01
(PID.TID 0000.0001) %MON dynstat_uvel_min             =  -1.3036105847051E-01
(PID.TID 0000.0001) %MON dynstat_uvel_mean            =  -8.0432627056106E-08
(PID.TID 0000.0001) %MON dynstat_uvel_sd              =   4.9662870181132E-02
(PID.TID 0000.0001) %MON dynstat_uvel_del2            =   1.0868838374766E-06
(PID.TID 0000.0001) %MON dynstat_vvel_max             =   1.5197485477770E-01
(PID.TID 0000.0001) %MON dynstat_vvel_min             =  -1.1969556528990E-01
(PID.TID 0000.0001) %MON dynstat_vvel_mean            =  -2.3749817301683E-08
(PID.TID 0000.0001) %MON dynstat_vvel_sd              =   4.6847315217828E-02
(PID.TID 0000.0001) %MON dynstat_vvel_del2            =   1.2994709486011E-06
(PID.TID 0000.0001) %MON dynstat_wvel_max             =   5.5514712352306E-09
(PID.TID 0000.0001) %MON dynstat_wvel_min             =  -8.4341316390783E-09
(PID.TID 0000.0001) %MON dynstat_wvel_mean            =  -4.8344947995969E-21
(PID.TID 0000.0001) %MON dynstat_wvel_sd              =   2.6479431936800E-09
(PID.TID 0000.0001) %MON dynstat_wvel_del2            =   2.6885229453544E-14
(PID.TID 0000.0001) %MON dynstat_theta_max            =   2.0000000000000E+01
(PID.TID 0000.0001) %MON dynstat_theta_min            =   2.0000000000000E+01
(PID.TID 0000.0001) %MON dynstat_theta_mean           =   1.9999999999999E+01
(PID.TID 0000.0001) %MON dynstat_theta_sd             =   1.1972645097557E-12
(PID.TID 0000.0001) %MON dynstat_theta_del2           =   0.0000000000000E+00
(PID.TID 0000.0001) %MON dynstat_salt_max             =   3.0000000000000E+01
(PID.TID 0000.0001) %MON dynstat_salt_min             =   3.0000000000000E+01
(PID.TID 0000.0001) %MON dynstat_salt_mean            =   2.9999999999998E+01
(PID.TID 0000.0001) %MON dynstat_salt_sd              =   2.1529444893531E-12
(PID.TID 0000.0001) %MON dynstat_salt_del2            =   0.0000000000000E+00
(PID.TID 0000.0001) %MON trAdv_CFL_u_max              =   3.1286345275437E-02
(PID.TID 0000.0001) %MON trAdv_CFL_v_max              =   3.6472769385225E-02
(PID.TID 0000.0001) %MON trAdv_CFL_w_max              =   1.3978698526391E-09
(PID.TID 0000.0001) %MON advcfl_uvel_max              =   3.1286654032922E-02
(PID.TID 0000.0001) %MON advcfl_vvel_max              =   3.6473965146647E-02
(PID.TID 0000.0001) %MON advcfl_wvel_max              =   4.0483831867576E-09
(PID.TID 0000.0001) %MON advcfl_W_hf_max              =   0.0000000000000E+00
(PID.TID 0000.0001) %MON pe_b_mean                    =   1.4351698538285E-05
(PID.TID 0000.0001) %MON ke_max                       =   1.1579223086609E-02
(PID.TID 0000.0001) %MON ke_mean                      =   2.3200451802675E-03
(PID.TID 0000.0001) %MON ke_vol                       =   7.2529629296391E+15
(PID.TID 0000.0001) %MON vort_r_min                   =  -4.2713183065083E-06
(PID.TID 0000.0001) %MON vort_r_max                   =   3.4795754362162E-06
(PID.TID 0000.0001) %MON vort_a_mean                  =   1.0615000000000E-04
(PID.TID 0000.0001) %MON vort_a_sd                    =   3.6405291664130E-06
(PID.TID 0000.0001) %MON vort_p_mean                  =   1.1210870169429E-04
(PID.TID 0000.0001) %MON vort_p_sd                    =   2.1069587658624E-05
(PID.TID 0000.0001) %MON surfExpan_theta_mean         =  -9.6748248472254E-20
(PID.TID 0000.0001) %MON surfExpan_salt_mean          =  -1.4511843699014E-19
(PID.TID 0000.0001) // =======================================================
(PID.TID 0000.0001) // End MONITOR dynamic field statistics
(PID.TID 0000.0001) // =======================================================
 cg2d: Sum(rhs),rhsMax =   3.27046791433004E-03  1.30684875714048E-02
 cg2d: Sum(rhs),rhsMax =   3.27091865211913E-03  1.30684088942317E-02
 cg2d: Sum(rhs),rhsMax =   3.27136880417290E-03  1.30683300206835E-02
 cg2d: Sum(rhs),rhsMax =   3.27181843215742E-03  1.30682509613712E-02
 cg2d: Sum(rhs),rhsMax =   3.27226727910016E-03  1.30681717066417E-02
 cg2d: Sum(rhs),rhsMax =   3.27271559154062E-03  1.30680922682131E-02
 cg2d: Sum(rhs),rhsMax =   3.27316353319116E-03  1.30680126331733E-02
 cg2d: Sum(rhs),rhsMax =   3.27361076594935E-03  1.30679328112976E-02
 cg2d: Sum(rhs),rhsMax =   3.27405753203316E-03  1.30678527973737E-02
 cg2d: Sum(rhs),rhsMax =   3.27450371282204E-03  1.30677725980617E-02
 cg2d: Sum(rhs),rhsMax =   3.27494932719644E-03  1.30676922055093E-02
 cg2d: Sum(rhs),rhsMax =   3.27539446454904E-03  1.30676116292045E-02
 cg2d: Sum(rhs),rhsMax =   3.27583891134877E-03  1.30675308603235E-02
 cg2d: Sum(rhs),rhsMax =   3.27628291985712E-03  1.30674499078485E-02
 cg2d: Sum(rhs),rhsMax =   3.27672600342049E-03  1.30673687647051E-02
 cg2d: Sum(rhs),rhsMax =   3.27716878265564E-03  1.30672874362527E-02
 cg2d: Sum(rhs),rhsMax =   3.27761092701122E-03  1.30672059183213E-02
 cg2d: Sum(rhs),rhsMax =   3.27805262103924E-03  1.30671242166306E-02
 cg2d: Sum(rhs),rhsMax =   3.27849365058103E-03  1.30670423260189E-02
 cg2d: Sum(rhs),rhsMax =   3.27893417813310E-03  1.30669602514294E-02
 cg2d: Sum(rhs),rhsMax =   3.27937396748613E-03  1.30668779892861E-02
 cg2d: Sum(rhs),rhsMax =   3.27981326817901E-03  1.30667955435581E-02
 cg2d: Sum(rhs),rhsMax =   3.28025196644983E-03  1.30667129102629E-02
 cg2d: Sum(rhs),rhsMax =   3.28069004216399E-03  1.30666300940064E-02
 cg2d: Sum(rhs),rhsMax =   3.28112760694534E-03  1.30665470918163E-02
 cg2d: Sum(rhs),rhsMax =   3.28156437188411E-03  1.30664639087304E-02
 cg2d: Sum(rhs),rhsMax =   3.28200079220970E-03  1.30663805375091E-02
 cg2d: Sum(rhs),rhsMax =   3.28243658713788E-03  1.30662969861068E-02
 cg2d: Sum(rhs),rhsMax =   3.28287189362003E-03  1.30662132489285E-02
 cg2d: Sum(rhs),rhsMax =   3.28330657250076E-03  1.30661293315344E-02
 cg2d: Sum(rhs),rhsMax =   3.28360567526624E-03  1.30660452339412E-02
 cg2d: Sum(rhs),rhsMax =   3.28390422246025E-03  1.30659609497168E-02
 cg2d: Sum(rhs),rhsMax =   3.28420253906879E-03  1.30658764849684E-02
 cg2d: Sum(rhs),rhsMax =   3.28449997301982E-03  1.30657918371297E-02
 cg2d: Sum(rhs),rhsMax =   3.28479728896193E-03  1.30657070083086E-02
 cg2d: Sum(rhs),rhsMax =   3.28509415462636E-03  1.30656220014089E-02
 cg2d: Sum(rhs),rhsMax =   3.28539056048072E-03  1.30655368103228E-02
 cg2d: Sum(rhs),rhsMax =   3.28568658599081E-03  1.30654514419237E-02
 cg2d: Sum(rhs),rhsMax =   3.28595017233249E-03  1.30653658925334E-02
 cg2d: Sum(rhs),rhsMax =   3.28621330782270E-03  1.30652801633801E-02
 cg2d: Sum(rhs),rhsMax =   3.28647618401013E-03  1.30651942531843E-02
 cg2d: Sum(rhs),rhsMax =   3.28673849005379E-03  1.30651081662203E-02
 cg2d: Sum(rhs),rhsMax =   3.28700056804197E-03  1.30650218992760E-02
 cg2d: Sum(rhs),rhsMax =   3.28726210346322E-03  1.30649354559209E-02
 cg2d: Sum(rhs),rhsMax =   3.28752338040592E-03  1.30648488326957E-02
 cg2d: Sum(rhs),rhsMax =   3.28778401286068E-03  1.30647620339643E-02
 cg2d: Sum(rhs),rhsMax =   3.28804446621069E-03  1.30646750572538E-02
 cg2d: Sum(rhs),rhsMax =   3.28830446884813E-03  1.30645879049103E-02
 cg2d: Sum(rhs),rhsMax =   3.28856413185602E-03  1.30645005725048E-02
 cg2d: Sum(rhs),rhsMax =   3.28882341696991E-03  1.30644130666540E-02
 cg2d: Sum(rhs),rhsMax =   3.28908227864006E-03  1.30643253836526E-02
 cg2d: Sum(rhs),rhsMax =   3.28934082319727E-03  1.30642375269116E-02
 cg2d: Sum(rhs),rhsMax =   3.28959873268595E-03  1.30641494927471E-02
 cg2d: Sum(rhs),rhsMax =   3.28985631961580E-03  1.30640612855006E-02
 cg2d: Sum(rhs),rhsMax =   3.29011360691001E-03  1.30639729051759E-02
 cg2d: Sum(rhs),rhsMax =   3.29037058592279E-03  1.30638843494521E-02
 cg2d: Sum(rhs),rhsMax =   3.29062711577818E-03  1.30637956194249E-02
 cg2d: Sum(rhs),rhsMax =   3.29088331651846E-03  1.30637067163753E-02
 cg2d: Sum(rhs),rhsMax =   3.29113907115103E-03  1.30636176396422E-02
 cg2d: Sum(rhs),rhsMax =   3.29139450532016E-03  1.30635283924247E-02
 cg2d: Sum(rhs),rhsMax =   3.29164952247340E-03  1.30634389724680E-02
 cg2d: Sum(rhs),rhsMax =   3.29190417658238E-03  1.30633493794715E-02
 cg2d: Sum(rhs),rhsMax =   3.29215847493739E-03  1.30632596158372E-02
 cg2d: Sum(rhs),rhsMax =   3.29241229875212E-03  1.30631696811668E-02
 cg2d: Sum(rhs),rhsMax =   3.29266578333664E-03  1.30630795756559E-02
 cg2d: Sum(rhs),rhsMax =   3.29291888624063E-03  1.30629892987343E-02
 cg2d: Sum(rhs),rhsMax =   3.29317166714324E-03  1.30628988521480E-02
 cg2d: Sum(rhs),rhsMax =   3.29342402075276E-03  1.30628082369909E-02
 cg2d: Sum(rhs),rhsMax =   3.29367595000293E-03  1.30627174515780E-02
 cg2d: Sum(rhs),rhsMax =   3.29392755265599E-03  1.30626264961152E-02
 cg2d: Sum(rhs),rhsMax =   3.29417884280569E-03  1.30625353728072E-02
 cg2d: Sum(rhs),rhsMax =   3.29442969884028E-03  1.30624440823665E-02
(PID.TID 0000.0001)      cg2d_init_res =   1.62635387547697E-03
(PID.TID 0000.0001)      cg2d_iters(min,last) =      -1     363
(PID.TID 0000.0001)      cg2d_last_res =   9.03920200702261E-08
(PID.TID 0000.0001) // =======================================================
(PID.TID 0000.0001) // Begin MONITOR dynamic field statistics
(PID.TID 0000.0001) // =======================================================
(PID.TID 0000.0001) %MON time_tsnumber                =                 17208
(PID.TID 0000.0001) %MON time_secondsf                =   2.0649600000000E+07
(PID.TID 0000.0001) %MON dynstat_eta_max              =   1.3325168485022E-01
(PID.TID 0000.0001) %MON dynstat_eta_min              =  -3.3661551003110E-01
(PID.TID 0000.0001) %MON dynstat_eta_mean             =  -2.0480041130212E-07
(PID.TID 0000.0001) %MON dynstat_eta_sd               =   1.1859211361121E-01
(PID.TID 0000.0001) %MON dynstat_eta_del2             =   7.1970656168962E-07
(PID.TID 0000.0001) %MON dynstat_uvel_max             =   1.2795810463374E-01
(PID.TID 0000.0001) %MON dynstat_uvel_min             =  -1.3044985538530E-01
(PID.TID 0000.0001) %MON dynstat_uvel_mean            =  -7.8698442533150E-08
(PID.TID 0000.0001) %MON dynstat_uvel_sd              =   4.9730599846571E-02
(PID.TID 0000.0001) %MON dynstat_uvel_del2            =   1.0874492688123E-06
(PID.TID 0000.0001) %MON dynstat_vvel_max             =   1.5233857532886E-01
(PID.TID 0000.0001) %MON dynstat_vvel_min             =  -1.1986977771859E-01
(PID.TID 0000.0001) %MON dynstat_vvel_mean            =  -9.9604416208851E-09
(PID.TID 0000.0001) %MON dynstat_vvel_sd              =   4.6927217901026E-02
(PID.TID 0000.0001) %MON dynstat_vvel_del2            =   1.3011011165052E-06
(PID.TID 0000.0001) %MON dynstat_wvel_max             =   5.3724998887628E-09
(PID.TID 0000.0001) %MON dynstat_wvel_min             =  -8.2786266691983E-09
(PID.TID 0000.0001) %MON dynstat_wvel_mean            =   8.7238276490636E-22
(PID.TID 0000.0001) %MON dynstat_wvel_sd              =   2.6458654619184E-09
(PID.TID 0000.0001) %MON dynstat_wvel_del2            =   2.6285538411424E-14
(PID.TID 0000.0001) %MON dynstat_theta_max            =   2.0000000000000E+01
(PID.TID 0000.0001) %MON dynstat_theta_min            =   2.0000000000000E+01
(PID.TID 0000.0001) %MON dynstat_theta_mean           =   1.9999999999999E+01
(PID.TID 0000.0001) %MON dynstat_theta_sd             =   1.1972645097557E-12
(PID.TID 0000.0001) %MON dynstat_theta_del2           =   0.0000000000000E+00
(PID.TID 0000.0001) %MON dynstat_salt_max             =   3.0000000000000E+01
(PID.TID 0000.0001) %MON dynstat_salt_min             =   3.0000000000000E+01
(PID.TID 0000.0001) %MON dynstat_salt_mean            =   2.9999999999998E+01
(PID.TID 0000.0001) %MON dynstat_salt_sd              =   2.1529444893531E-12
(PID.TID 0000.0001) %MON dynstat_salt_del2            =   0.0000000000000E+00
(PID.TID 0000.0001) %MON trAdv_CFL_u_max              =   3.1307681350275E-02
(PID.TID 0000.0001) %MON trAdv_CFL_v_max              =   3.6560029578096E-02
(PID.TID 0000.0001) %MON trAdv_CFL_w_max              =   1.3517492313248E-09
(PID.TID 0000.0001) %MON advcfl_uvel_max              =   3.1307965292472E-02
(PID.TID 0000.0001) %MON advcfl_vvel_max              =   3.6561258078927E-02
(PID.TID 0000.0001) %MON advcfl_wvel_max              =   3.9737408012152E-09
(PID.TID 0000.0001) %MON advcfl_W_hf_max              =   0.0000000000000E+00
(PID.TID 0000.0001) %MON pe_b_mean                    =   1.4389489795820E-05
(PID.TID 0000.0001) %MON ke_max                       =   1.1632513912871E-02
(PID.TID 0000.0001) %MON ke_mean                      =   2.3271255264624E-03
(PID.TID 0000.0001) %MON ke_vol                       =   7.2529629296391E+15
(PID.TID 0000.0001) %MON vort_r_min                   =  -4.2763945979578E-06
(PID.TID 0000.0001) %MON vort_r_max                   =   3.4903602850588E-06
(PID.TID 0000.0001) %MON vort_a_mean                  =   1.0615000000000E-04
(PID.TID 0000.0001) %MON vort_a_sd                    =   3.6407444343609E-06
(PID.TID 0000.0001) %MON vort_p_mean                  =   1.1210870169429E-04
(PID.TID 0000.0001) %MON vort_p_sd                    =   2.1069676290331E-05
(PID.TID 0000.0001) %MON surfExpan_theta_mean         =   1.7405906549883E-20
(PID.TID 0000.0001) %MON surfExpan_salt_mean          =   2.6110545853584E-20
(PID.TID 0000.0001) // =======================================================
(PID.TID 0000.0001) // End MONITOR dynamic field statistics
(PID.TID 0000.0001) // =======================================================
 cg2d: Sum(rhs),rhsMax =   3.29468025138192E-03  1.30623526236368E-02
 cg2d: Sum(rhs),rhsMax =   3.29493038575248E-03  1.30622609973480E-02
 cg2d: Sum(rhs),rhsMax =   3.29518006182000E-03  1.30621692038049E-02
 cg2d: Sum(rhs),rhsMax =   3.29542943357775E-03  1.30620772461058E-02
 cg2d: Sum(rhs),rhsMax =   3.29567847434580E-03  1.30619851197250E-02
 cg2d: Sum(rhs),rhsMax =   3.29592713826184E-03  1.30618928277557E-02
 cg2d: Sum(rhs),rhsMax =   3.29617538721728E-03  1.30618003691694E-02
 cg2d: Sum(rhs),rhsMax =   3.29642333261957E-03  1.30617077471833E-02
 cg2d: Sum(rhs),rhsMax =   3.29667080082849E-03  1.30616149591745E-02
 cg2d: Sum(rhs),rhsMax =   3.29691800797743E-03  1.30615220077511E-02
 cg2d: Sum(rhs),rhsMax =   3.29716479884671E-03  1.30614288919278E-02
 cg2d: Sum(rhs),rhsMax =   3.29741131745486E-03  1.30613356131974E-02
 cg2d: Sum(rhs),rhsMax =   3.29765731564957E-03  1.30612421719926E-02
 cg2d: Sum(rhs),rhsMax =   3.29790304553729E-03  1.30611485651515E-02
 cg2d: Sum(rhs),rhsMax =   3.29814839057437E-03  1.30610547963326E-02
 cg2d: Sum(rhs),rhsMax =   3.29839339953067E-03  1.30609608668560E-02
 cg2d: Sum(rhs),rhsMax =   3.29863805969202E-03  1.30608667749178E-02
 cg2d: Sum(rhs),rhsMax =   3.29888228974016E-03  1.30607725222656E-02
 cg2d: Sum(rhs),rhsMax =   3.29912614781990E-03  1.30606781077808E-02
 cg2d: Sum(rhs),rhsMax =   3.29936963941267E-03  1.30605835354648E-02
 cg2d: Sum(rhs),rhsMax =   3.29961284134928E-03  1.30604888013764E-02
 cg2d: Sum(rhs),rhsMax =   3.29985561911378E-03  1.30603939080383E-02
 cg2d: Sum(rhs),rhsMax =   3.30009804768298E-03  1.30602988538512E-02
 cg2d: Sum(rhs),rhsMax =   3.30034013930847E-03  1.30602036418835E-02
 cg2d: Sum(rhs),rhsMax =   3.30058188896911E-03  1.30601082726303E-02
 cg2d: Sum(rhs),rhsMax =   3.30082329195117E-03  1.30600127440966E-02
 cg2d: Sum(rhs),rhsMax =   3.30106435339395E-03  1.30599170566949E-02
 cg2d: Sum(rhs),rhsMax =   3.30130507769994E-03  1.30598212143603E-02
 cg2d: Sum(rhs),rhsMax =   3.30154537781665E-03  1.30597252143701E-02
 cg2d: Sum(rhs),rhsMax =   3.30178538952682E-03  1.30596290579345E-02
 cg2d: Sum(rhs),rhsMax =   3.30202498175681E-03  1.30595327447127E-02
 cg2d: Sum(rhs),rhsMax =   3.30226426609579E-03  1.30594362780632E-02
 cg2d: Sum(rhs),rhsMax =   3.30250321436805E-03  1.30593396546116E-02
 cg2d: Sum(rhs),rhsMax =   3.30274182092280E-03  1.30592428767088E-02
 cg2d: Sum(rhs),rhsMax =   3.30298005888371E-03  1.30591459436494E-02
 cg2d: Sum(rhs),rhsMax =   3.30321795863989E-03  1.30590488573144E-02
 cg2d: Sum(rhs),rhsMax =   3.30345527717445E-03  1.30589516190670E-02
 cg2d: Sum(rhs),rhsMax =   3.30369245595083E-03  1.30588542240342E-02
 cg2d: Sum(rhs),rhsMax =   3.30392923715648E-03  1.30587566772505E-02
 cg2d: Sum(rhs),rhsMax =   3.30416577635454E-03  1.30586589792486E-02
 cg2d: Sum(rhs),rhsMax =   3.30440189094862E-03  1.30585611284074E-02
 cg2d: Sum(rhs),rhsMax =   3.30463765684801E-03  1.30584631265975E-02
 cg2d: Sum(rhs),rhsMax =   3.30487312583428E-03  1.30583649731863E-02
 cg2d: Sum(rhs),rhsMax =   3.30510821738631E-03  1.30582666705457E-02
 cg2d: Sum(rhs),rhsMax =   3.30534303565482E-03  1.30581682175968E-02
 cg2d: Sum(rhs),rhsMax =   3.30557749623907E-03  1.30580696165560E-02
 cg2d: Sum(rhs),rhsMax =   3.30581163074710E-03  1.30579708630338E-02
 cg2d: Sum(rhs),rhsMax =   3.30604539709299E-03  1.30578719634624E-02
 cg2d: Sum(rhs),rhsMax =   3.30627881022086E-03  1.30577729118633E-02
 cg2d: Sum(rhs),rhsMax =   3.30651184528122E-03  1.30576737168584E-02
 cg2d: Sum(rhs),rhsMax =   3.30674456239064E-03  1.30575743684939E-02
 cg2d: Sum(rhs),rhsMax =   3.30697699180918E-03  1.30574748752654E-02
 cg2d: Sum(rhs),rhsMax =   3.30720900906620E-03  1.30573752341220E-02
 cg2d: Sum(rhs),rhsMax =   3.30744078776050E-03  1.30572754491223E-02
 cg2d: Sum(rhs),rhsMax =   3.30767216548949E-03  1.30571755160748E-02
 cg2d: Sum(rhs),rhsMax =   3.30790327041129E-03  1.30570754389890E-02
 cg2d: Sum(rhs),rhsMax =   3.30813395859296E-03  1.30569752152952E-02
 cg2d: Sum(rhs),rhsMax =   3.30836431459685E-03  1.30568748491319E-02
 cg2d: Sum(rhs),rhsMax =   3.30859435910443E-03  1.30567743386062E-02
 cg2d: Sum(rhs),rhsMax =   3.30882409760650E-03  1.30566736853750E-02
 cg2d: Sum(rhs),rhsMax =   3.30905352704904E-03  1.30565728867949E-02
 cg2d: Sum(rhs),rhsMax =   3.30928261857683E-03  1.30564719474662E-02
 cg2d: Sum(rhs),rhsMax =   3.30951138560110E-03  1.30563708626201E-02
 cg2d: Sum(rhs),rhsMax =   3.30973977323932E-03  1.30562696395732E-02
 cg2d: Sum(rhs),rhsMax =   3.30996784531974E-03  1.30561682707128E-02
 cg2d: Sum(rhs),rhsMax =   3.31019560628527E-03  1.30560667623954E-02
 cg2d: Sum(rhs),rhsMax =   3.31042307177939E-03  1.30559651119802E-02
 cg2d: Sum(rhs),rhsMax =   3.31065022186892E-03  1.30558633233156E-02
 cg2d: Sum(rhs),rhsMax =   3.31087699910901E-03  1.30557613940896E-02
 cg2d: Sum(rhs),rhsMax =   3.31110343289453E-03  1.30556593282738E-02
 cg2d: Sum(rhs),rhsMax =   3.31132955881746E-03  1.30555571201534E-02
 cg2d: Sum(rhs),rhsMax =   3.31155537023397E-03  1.30554547758824E-02
(PID.TID 0000.0001)      cg2d_init_res =   1.61419535539099E-03
(PID.TID 0000.0001)      cg2d_iters(min,last) =      -1     363
(PID.TID 0000.0001)      cg2d_last_res =   8.95100561424367E-08
(PID.TID 0000.0001) // =======================================================
(PID.TID 0000.0001) // Begin MONITOR dynamic field statistics
(PID.TID 0000.0001) // =======================================================
(PID.TID 0000.0001) %MON time_tsnumber                =                 17280
(PID.TID 0000.0001) %MON time_secondsf                =   2.0736000000000E+07
(PID.TID 0000.0001) %MON dynstat_eta_max              =   1.3362356414180E-01
(PID.TID 0000.0001) %MON dynstat_eta_min              =  -3.3729605588124E-01
(PID.TID 0000.0001) %MON dynstat_eta_mean             =  -2.0575307583272E-07
(PID.TID 0000.0001) %MON dynstat_eta_sd               =   1.1874541292989E-01
(PID.TID 0000.0001) %MON dynstat_eta_del2             =   7.2067364291969E-07
(PID.TID 0000.0001) %MON dynstat_uvel_max             =   1.2819649286564E-01
(PID.TID 0000.0001) %MON dynstat_uvel_min             =  -1.3053157474273E-01
(PID.TID 0000.0001) %MON dynstat_uvel_mean            =  -7.3938503749460E-08
(PID.TID 0000.0001) %MON dynstat_uvel_sd              =   4.9793186601439E-02
(PID.TID 0000.0001) %MON dynstat_uvel_del2            =   1.0878926462515E-06
(PID.TID 0000.0001) %MON dynstat_vvel_max             =   1.5271196419806E-01
(PID.TID 0000.0001) %MON dynstat_vvel_min             =  -1.2005584409184E-01
(PID.TID 0000.0001) %MON dynstat_vvel_mean            =   3.1451978978052E-09
(PID.TID 0000.0001) %MON dynstat_vvel_sd              =   4.7011022075285E-02
(PID.TID 0000.0001) %MON dynstat_vvel_del2            =   1.3024682799496E-06
(PID.TID 0000.0001) %MON dynstat_wvel_max             =   5.1144235022366E-09
(PID.TID 0000.0001) %MON dynstat_wvel_min             =  -8.0981046380475E-09
(PID.TID 0000.0001) %MON dynstat_wvel_mean            =   1.1569819432459E-20
(PID.TID 0000.0001) %MON dynstat_wvel_sd              =   2.6430753173169E-09
(PID.TID 0000.0001) %MON dynstat_wvel_del2            =   2.6079391776308E-14
(PID.TID 0000.0001) %MON dynstat_theta_max            =   2.0000000000000E+01
(PID.TID 0000.0001) %MON dynstat_theta_min            =   2.0000000000000E+01
(PID.TID 0000.0001) %MON dynstat_theta_mean           =   1.9999999999999E+01
(PID.TID 0000.0001) %MON dynstat_theta_sd             =   1.1972645097557E-12
(PID.TID 0000.0001) %MON dynstat_theta_del2           =   0.0000000000000E+00
(PID.TID 0000.0001) %MON dynstat_salt_max             =   3.0000000000000E+01
(PID.TID 0000.0001) %MON dynstat_salt_min             =   3.0000000000000E+01
(PID.TID 0000.0001) %MON dynstat_salt_mean            =   2.9999999999998E+01
(PID.TID 0000.0001) %MON dynstat_salt_sd              =   2.1529444893531E-12
(PID.TID 0000.0001) %MON dynstat_salt_del2            =   0.0000000000000E+00
(PID.TID 0000.0001) %MON trAdv_CFL_u_max              =   3.1327316322577E-02
(PID.TID 0000.0001) %MON trAdv_CFL_v_max              =   3.6649611413641E-02
(PID.TID 0000.0001) %MON trAdv_CFL_w_max              =   1.2850536415457E-09
(PID.TID 0000.0001) %MON advcfl_uvel_max              =   3.1327577938255E-02
(PID.TID 0000.0001) %MON advcfl_vvel_max              =   3.6650871407535E-02
(PID.TID 0000.0001) %MON advcfl_wvel_max              =   3.8870902262628E-09
(PID.TID 0000.0001) %MON advcfl_W_hf_max              =   0.0000000000000E+00
(PID.TID 0000.0001) %MON pe_b_mean                    =   1.4426715284999E-05
(PID.TID 0000.0001) %MON ke_max                       =   1.1687416180896E-02
(PID.TID 0000.0001) %MON ke_mean                      =   2.3341444325606E-03
(PID.TID 0000.0001) %MON ke_vol                       =   7.2529629296391E+15
(PID.TID 0000.0001) %MON vort_r_min                   =  -4.2812537927893E-06
(PID.TID 0000.0001) %MON vort_r_max                   =   3.5002120208067E-06
(PID.TID 0000.0001) %MON vort_a_mean                  =   1.0615000000000E-04
(PID.TID 0000.0001) %MON vort_a_sd                    =   3.6409517904533E-06
(PID.TID 0000.0001) %MON vort_p_mean                  =   1.1210870169429E-04
(PID.TID 0000.0001) %MON vort_p_sd                    =   2.1069769189343E-05
(PID.TID 0000.0001) %MON surfExpan_theta_mean         =   2.3136963177674E-19
(PID.TID 0000.0001) %MON surfExpan_salt_mean          =   3.4705457916882E-19
(PID.TID 0000.0001) // =======================================================
(PID.TID 0000.0001) // End MONITOR dynamic field statistics
(PID.TID 0000.0001) // =======================================================
 cg2d: Sum(rhs),rhsMax =   3.31178087603423E-03  1.30553522918843E-02
 cg2d: Sum(rhs),rhsMax =   3.31200607589516E-03  1.30552496735175E-02
 cg2d: Sum(rhs),rhsMax =   3.31223091659193E-03  1.30551469151742E-02
 cg2d: Sum(rhs),rhsMax =   3.31245548413489E-03  1.30550440227635E-02
 cg2d: Sum(rhs),rhsMax =   3.31267971837897E-03  1.30549409907070E-02
 cg2d: Sum(rhs),rhsMax =   3.31290362083326E-03  1.30548378268862E-02
 cg2d: Sum(rhs),rhsMax =   3.31312708858214E-03  1.30547345239639E-02
 cg2d: Sum(rhs),rhsMax =   3.31335034430003E-03  1.30546310877835E-02
 cg2d: Sum(rhs),rhsMax =   3.31371302490232E-03  1.30545275102408E-02
 cg2d: Sum(rhs),rhsMax =   3.31407518685122E-03  1.30544238065415E-02
 cg2d: Sum(rhs),rhsMax =   3.31443679447915E-03  1.30543199689632E-02
 cg2d: Sum(rhs),rhsMax =   3.31479782218099E-03  1.30542160010086E-02
 cg2d: Sum(rhs),rhsMax =   3.31515828624814E-03  1.30541118952312E-02
 cg2d: Sum(rhs),rhsMax =   3.31551821186052E-03  1.30540076610120E-02
 cg2d: Sum(rhs),rhsMax =   3.31587754101100E-03  1.30539032932378E-02
 cg2d: Sum(rhs),rhsMax =   3.31623627925812E-03  1.30537987965271E-02
 cg2d: Sum(rhs),rhsMax =   3.31659444269980E-03  1.30536941664828E-02
 cg2d: Sum(rhs),rhsMax =   3.31695207726340E-03  1.30535894104035E-02
 cg2d: Sum(rhs),rhsMax =   3.31730911519355E-03  1.30534845221969E-02
 cg2d: Sum(rhs),rhsMax =   3.31766561400902E-03  1.30533795073233E-02
 cg2d: Sum(rhs),rhsMax =   3.31802149043931E-03  1.30532743584222E-02
 cg2d: Sum(rhs),rhsMax =   3.31837685850552E-03  1.30531690856297E-02
 cg2d: Sum(rhs),rhsMax =   3.31873161985032E-03  1.30530636830115E-02
 cg2d: Sum(rhs),rhsMax =   3.31908583934022E-03  1.30529581544764E-02
 cg2d: Sum(rhs),rhsMax =   3.31943949933885E-03  1.30528524956824E-02
 cg2d: Sum(rhs),rhsMax =   3.31979262475932E-03  1.30527467139798E-02
 cg2d: Sum(rhs),rhsMax =   3.32014517654185E-03  1.30526408047420E-02
 cg2d: Sum(rhs),rhsMax =   3.32049716692371E-03  1.30525347721617E-02
 cg2d: Sum(rhs),rhsMax =   3.32084856633371E-03  1.30524286117033E-02
 cg2d: Sum(rhs),rhsMax =   3.32119938993789E-03  1.30523223305103E-02
 cg2d: Sum(rhs),rhsMax =   3.32154962160758E-03  1.30522159233551E-02
 cg2d: Sum(rhs),rhsMax =   3.32189937515488E-03  1.30521093947158E-02
 cg2d: Sum(rhs),rhsMax =   3.32224847855833E-03  1.30520027387195E-02
 cg2d: Sum(rhs),rhsMax =   3.32259711001256E-03  1.30518959642487E-02
 cg2d: Sum(rhs),rhsMax =   3.32294500241929E-03  1.30517890644160E-02
 cg2d: Sum(rhs),rhsMax =   3.32329240123065E-03  1.30516820443382E-02
 cg2d: Sum(rhs),rhsMax =   3.32363927078482E-03  1.30515749013675E-02
 cg2d: Sum(rhs),rhsMax =   3.32398561133251E-03  1.30514676399004E-02
 cg2d: Sum(rhs),rhsMax =   3.32433138422807E-03  1.30513602579536E-02
 cg2d: Sum(rhs),rhsMax =   3.32467657270969E-03  1.30512527576164E-02
 cg2d: Sum(rhs),rhsMax =   3.32502125469658E-03  1.30511451364398E-02
 cg2d: Sum(rhs),rhsMax =   3.32536523546685E-03  1.30510373983378E-02
 cg2d: Sum(rhs),rhsMax =   3.32570878928921E-03  1.30509295404077E-02
 cg2d: Sum(rhs),rhsMax =   3.32605172840163E-03  1.30508215667563E-02
 cg2d: Sum(rhs),rhsMax =   3.32639415781236E-03  1.30507134728047E-02
 cg2d: Sum(rhs),rhsMax =   3.32673599462525E-03  1.30506052647948E-02
 cg2d: Sum(rhs),rhsMax =   3.32707733920243E-03  1.30504969385203E-02
 cg2d: Sum(rhs),rhsMax =   3.32741800333258E-03  1.30503884992629E-02
 cg2d: Sum(rhs),rhsMax =   3.32775820138339E-03  1.30502799408177E-02
 cg2d: Sum(rhs),rhsMax =   3.32809767957220E-03  1.30501712691810E-02
 cg2d: Sum(rhs),rhsMax =   3.32843672247294E-03  1.30500624838313E-02
 cg2d: Sum(rhs),rhsMax =   3.32877516100320E-03  1.30499535871531E-02
 cg2d: Sum(rhs),rhsMax =   3.32911307944893E-03  1.30498445730720E-02
 cg2d: Sum(rhs),rhsMax =   3.32945044247550E-03  1.30497354494168E-02
 cg2d: Sum(rhs),rhsMax =   3.32978724301785E-03  1.30496262103364E-02
 cg2d: Sum(rhs),rhsMax =   3.33012345863716E-03  1.30495168626886E-02
 cg2d: Sum(rhs),rhsMax =   3.33045909811303E-03  1.30494074006958E-02
 cg2d: Sum(rhs),rhsMax =   3.33079411232612E-03  1.30492978322917E-02
 cg2d: Sum(rhs),rhsMax =   3.33112864327624E-03  1.30491881500536E-02
 cg2d: Sum(rhs),rhsMax =   3.33146264636717E-03  1.30490783603936E-02
 cg2d: Sum(rhs),rhsMax =   3.33179593178626E-03  1.30489684592232E-02
 cg2d: Sum(rhs),rhsMax =   3.33212877524782E-03  1.30488584506821E-02
 cg2d: Sum(rhs),rhsMax =   3.33246101083551E-03  1.30487483313289E-02
 cg2d: Sum(rhs),rhsMax =   3.33279266371987E-03  1.30486381067067E-02
 cg2d: Sum(rhs),rhsMax =   3.33312380834760E-03  1.30485277743731E-02
 cg2d: Sum(rhs),rhsMax =   3.33345442571136E-03  1.30484173366588E-02
 cg2d: Sum(rhs),rhsMax =   3.33378449823308E-03  1.30483067901898E-02
 cg2d: Sum(rhs),rhsMax =   3.33411399964503E-03  1.30481961396126E-02
 cg2d: Sum(rhs),rhsMax =   3.33444293833369E-03  1.30480853822647E-02
 cg2d: Sum(rhs),rhsMax =   3.33477124908338E-03  1.30479745209511E-02
 cg2d: Sum(rhs),rhsMax =   3.33509903514623E-03  1.30478635556637E-02
 cg2d: Sum(rhs),rhsMax =   3.33542611176391E-03  1.30477524881148E-02
(PID.TID 0000.0001)      cg2d_init_res =   1.60367945020373E-03
(PID.TID 0000.0001)      cg2d_iters(min,last) =      -1     359
(PID.TID 0000.0001)      cg2d_last_res =   9.69464723014533E-08
(PID.TID 0000.0001) // =======================================================
(PID.TID 0000.0001) // Begin MONITOR dynamic field statistics
(PID.TID 0000.0001) // =======================================================
(PID.TID 0000.0001) %MON time_tsnumber                =                 17352
(PID.TID 0000.0001) %MON time_secondsf                =   2.0822400000000E+07
(PID.TID 0000.0001) %MON dynstat_eta_max              =   1.3398522927824E-01
(PID.TID 0000.0001) %MON dynstat_eta_min              =  -3.3796634276807E-01
(PID.TID 0000.0001) %MON dynstat_eta_mean             =  -2.0711998860522E-07
(PID.TID 0000.0001) %MON dynstat_eta_sd               =   1.1889605508343E-01
(PID.TID 0000.0001) %MON dynstat_eta_del2             =   7.2160762727944E-07
(PID.TID 0000.0001) %MON dynstat_uvel_max             =   1.2841496300791E-01
(PID.TID 0000.0001) %MON dynstat_uvel_min             =  -1.3060702860837E-01
(PID.TID 0000.0001) %MON dynstat_uvel_mean            =  -6.6342178725604E-08
(PID.TID 0000.0001) %MON dynstat_uvel_sd              =   4.9850760884698E-02
(PID.TID 0000.0001) %MON dynstat_uvel_del2            =   1.0882408870464E-06
(PID.TID 0000.0001) %MON dynstat_vvel_max             =   1.5309443282139E-01
(PID.TID 0000.0001) %MON dynstat_vvel_min             =  -1.2025465572373E-01
(PID.TID 0000.0001) %MON dynstat_vvel_mean            =   1.5075855453391E-08
(PID.TID 0000.0001) %MON dynstat_vvel_sd              =   4.7098381450812E-02
(PID.TID 0000.0001) %MON dynstat_vvel_del2            =   1.3035241425108E-06
(PID.TID 0000.0001) %MON dynstat_wvel_max             =   4.8069158475846E-09
(PID.TID 0000.0001) %MON dynstat_wvel_min             =  -7.8928124811500E-09
(PID.TID 0000.0001) %MON dynstat_wvel_mean            =   1.0460528244077E-20
(PID.TID 0000.0001) %MON dynstat_wvel_sd              =   2.6389409132214E-09
(PID.TID 0000.0001) %MON dynstat_wvel_del2            =   2.6271903987496E-14
(PID.TID 0000.0001) %MON dynstat_theta_max            =   2.0000000000000E+01
(PID.TID 0000.0001) %MON dynstat_theta_min            =   2.0000000000000E+01
(PID.TID 0000.0001) %MON dynstat_theta_mean           =   1.9999999999999E+01
(PID.TID 0000.0001) %MON dynstat_theta_sd             =   1.1972645097557E-12
(PID.TID 0000.0001) %MON dynstat_theta_del2           =   0.0000000000000E+00
(PID.TID 0000.0001) %MON dynstat_salt_max             =   3.0000000000000E+01
(PID.TID 0000.0001) %MON dynstat_salt_min             =   3.0000000000000E+01
(PID.TID 0000.0001) %MON dynstat_salt_mean            =   2.9999999999998E+01
(PID.TID 0000.0001) %MON dynstat_salt_sd              =   2.1529444893531E-12
(PID.TID 0000.0001) %MON dynstat_salt_del2            =   0.0000000000000E+00
(PID.TID 0000.0001) %MON trAdv_CFL_u_max              =   3.1345444672440E-02
(PID.TID 0000.0001) %MON trAdv_CFL_v_max              =   3.6741375031282E-02
(PID.TID 0000.0001) %MON trAdv_CFL_w_max              =   1.2087854883900E-09
(PID.TID 0000.0001) %MON advcfl_uvel_max              =   3.1345686866009E-02
(PID.TID 0000.0001) %MON advcfl_vvel_max              =   3.6742663877134E-02
(PID.TID 0000.0001) %MON advcfl_wvel_max              =   3.7885499909520E-09
(PID.TID 0000.0001) %MON advcfl_W_hf_max              =   0.0000000000000E+00
(PID.TID 0000.0001) %MON pe_b_mean                    =   1.4463342383718E-05
(PID.TID 0000.0001) %MON ke_max                       =   1.1743893932572E-02
(PID.TID 0000.0001) %MON ke_mean                      =   2.3410921506133E-03
(PID.TID 0000.0001) %MON ke_vol                       =   7.2529629296391E+15
(PID.TID 0000.0001) %MON vort_r_min                   =  -4.2859494086772E-06
(PID.TID 0000.0001) %MON vort_r_max                   =   3.5088730759204E-06
(PID.TID 0000.0001) %MON vort_a_mean                  =   1.0615000000000E-04
(PID.TID 0000.0001) %MON vort_a_sd                    =   3.6411506176885E-06
(PID.TID 0000.0001) %MON vort_p_mean                  =   1.1210870169429E-04
(PID.TID 0000.0001) %MON vort_p_sd                    =   2.1069865350894E-05
(PID.TID 0000.0001) %MON surfExpan_theta_mean         =   2.0917529941834E-19
(PID.TID 0000.0001) %MON surfExpan_salt_mean          =   3.1376504849035E-19
(PID.TID 0000.0001) // =======================================================
(PID.TID 0000.0001) // End MONITOR dynamic field statistics
(PID.TID 0000.0001) // =======================================================
 cg2d: Sum(rhs),rhsMax =   3.33575277799096E-03  1.30476413137880E-02
 cg2d: Sum(rhs),rhsMax =   3.33607888504790E-03  1.30475300398619E-02
 cg2d: Sum(rhs),rhsMax =   3.33640440646726E-03  1.30474186654679E-02
 cg2d: Sum(rhs),rhsMax =   3.33672944026313E-03  1.30473071869133E-02
 cg2d: Sum(rhs),rhsMax =   3.33705384526201E-03  1.30471956065912E-02
 cg2d: Sum(rhs),rhsMax =   3.33737773430177E-03  1.30470839270114E-02
 cg2d: Sum(rhs),rhsMax =   3.33770100706090E-03  1.30469721462444E-02
 cg2d: Sum(rhs),rhsMax =   3.33802379313605E-03  1.30468602666029E-02
 cg2d: Sum(rhs),rhsMax =   3.33834587456882E-03  1.30467482866583E-02
 cg2d: Sum(rhs),rhsMax =   3.33864351301491E-03  1.30467300314648E-02
 cg2d: Sum(rhs),rhsMax =   3.33888141561347E-03  1.30469421436418E-02
 cg2d: Sum(rhs),rhsMax =   3.33911885688589E-03  1.30471542324868E-02
 cg2d: Sum(rhs),rhsMax =   3.33935562229303E-03  1.30473662935310E-02
 cg2d: Sum(rhs),rhsMax =   3.33959192693723E-03  1.30475783318007E-02
 cg2d: Sum(rhs),rhsMax =   3.33982757279976E-03  1.30477903410097E-02
 cg2d: Sum(rhs),rhsMax =   3.34006267236687E-03  1.30480023363211E-02
 cg2d: Sum(rhs),rhsMax =   3.34029716992702E-03  1.30482143069091E-02
 cg2d: Sum(rhs),rhsMax =   3.34053101015614E-03  1.30484262549485E-02
 cg2d: Sum(rhs),rhsMax =   3.34076429737970E-03  1.30486381789933E-02
 cg2d: Sum(rhs),rhsMax =   3.34099675441985E-03  1.30488500851412E-02
 cg2d: Sum(rhs),rhsMax =   3.34122881001842E-03  1.30490619706694E-02
 cg2d: Sum(rhs),rhsMax =   3.34146028726298E-03  1.30492738366815E-02
 cg2d: Sum(rhs),rhsMax =   3.34169122769675E-03  1.30494856775612E-02
 cg2d: Sum(rhs),rhsMax =   3.34192152287188E-03  1.30496975034564E-02
 cg2d: Sum(rhs),rhsMax =   3.34215125541266E-03  1.30499093049741E-02
 cg2d: Sum(rhs),rhsMax =   3.34238035943124E-03  1.30501210933850E-02
 cg2d: Sum(rhs),rhsMax =   3.34260889331337E-03  1.30503328595266E-02
 cg2d: Sum(rhs),rhsMax =   3.34283676875814E-03  1.30505446123562E-02
 cg2d: Sum(rhs),rhsMax =   3.34306391619250E-03  1.30507563463778E-02
 cg2d: Sum(rhs),rhsMax =   3.34329061508814E-03  1.30509680627515E-02
 cg2d: Sum(rhs),rhsMax =   3.34351672099821E-03  1.30511797591796E-02
 cg2d: Sum(rhs),rhsMax =   3.34374227461730E-03  1.30513914457962E-02
 cg2d: Sum(rhs),rhsMax =   3.34396708703073E-03  1.30516031128220E-02
 cg2d: Sum(rhs),rhsMax =   3.34419142826924E-03  1.30518147683202E-02
 cg2d: Sum(rhs),rhsMax =   3.34441506652986E-03  1.30520264055423E-02
 cg2d: Sum(rhs),rhsMax =   3.34463822977849E-03  1.30522380315783E-02
 cg2d: Sum(rhs),rhsMax =   3.34486068508117E-03  1.30524496401269E-02
 cg2d: Sum(rhs),rhsMax =   3.34508262032911E-03  1.30526612386893E-02
 cg2d: Sum(rhs),rhsMax =   3.34530388391420E-03  1.30528728208524E-02
 cg2d: Sum(rhs),rhsMax =   3.34552459713870E-03  1.30530843927830E-02
 cg2d: Sum(rhs),rhsMax =   3.34574457397940E-03  1.30532959492937E-02
 cg2d: Sum(rhs),rhsMax =   3.34596408711809E-03  1.30535074972811E-02
 cg2d: Sum(rhs),rhsMax =   3.34618292633211E-03  1.30537190276238E-02
 cg2d: Sum(rhs),rhsMax =   3.34640122408695E-03  1.30539305558310E-02
 cg2d: Sum(rhs),rhsMax =   3.34661886419795E-03  1.30541420675248E-02
 cg2d: Sum(rhs),rhsMax =   3.34683593419756E-03  1.30543535748191E-02
 cg2d: Sum(rhs),rhsMax =   3.34705235676117E-03  1.30545650677523E-02
 cg2d: Sum(rhs),rhsMax =   3.34726820585731E-03  1.30547765551824E-02
 cg2d: Sum(rhs),rhsMax =   3.34748340445927E-03  1.30549880301835E-02
 cg2d: Sum(rhs),rhsMax =   3.34769799051583E-03  1.30551994997520E-02
 cg2d: Sum(rhs),rhsMax =   3.34791197556324E-03  1.30554109584556E-02
 cg2d: Sum(rhs),rhsMax =   3.34812516270700E-03  1.30556224091679E-02
 cg2d: Sum(rhs),rhsMax =   3.34833791373019E-03  1.30558338586449E-02
 cg2d: Sum(rhs),rhsMax =   3.34855000840202E-03  1.30560453010680E-02
 cg2d: Sum(rhs),rhsMax =   3.34876158031171E-03  1.30562567296405E-02
 cg2d: Sum(rhs),rhsMax =   3.34897253649522E-03  1.30564681587784E-02
 cg2d: Sum(rhs),rhsMax =   3.34918265179771E-03  1.30566795804785E-02
 cg2d: Sum(rhs),rhsMax =   3.34939236242238E-03  1.30568909943007E-02
 cg2d: Sum(rhs),rhsMax =   3.34960140235013E-03  1.30571024081430E-02
 cg2d: Sum(rhs),rhsMax =   3.34980990230273E-03  1.30573138170216E-02
 cg2d: Sum(rhs),rhsMax =   3.35001774900365E-03  1.30575252230394E-02
 cg2d: Sum(rhs),rhsMax =   3.35022504286026E-03  1.30577366247550E-02
 cg2d: Sum(rhs),rhsMax =   3.35043167195616E-03  1.30579480249271E-02
 cg2d: Sum(rhs),rhsMax =   3.35063773918667E-03  1.30581594201529E-02
 cg2d: Sum(rhs),rhsMax =   3.35084307930639E-03  1.30583708144908E-02
 cg2d: Sum(rhs),rhsMax =   3.35104789130090E-03  1.30585822061889E-02
 cg2d: Sum(rhs),rhsMax =   3.35125184831858E-03  1.30587935916175E-02
 cg2d: Sum(rhs),rhsMax =   3.35145533615416E-03  1.30590049863092E-02
 cg2d: Sum(rhs),rhsMax =   3.35165823205391E-03  1.30592163718830E-02
 cg2d: Sum(rhs),rhsMax =   3.35186049194351E-03  1.30594277669169E-02
 cg2d: Sum(rhs),rhsMax =   3.35206216841048E-03  1.30596391524303E-02
 cg2d: Sum(rhs),rhsMax =   3.35226317830449E-03  1.30598505465585E-02
(PID.TID 0000.0001)      cg2d_init_res =   1.59259258334236E-03
(PID.TID 0000.0001)      cg2d_iters(min,last) =      -1     359
(PID.TID 0000.0001)      cg2d_last_res =   9.04546746390866E-08
(PID.TID 0000.0001) // =======================================================
(PID.TID 0000.0001) // Begin MONITOR dynamic field statistics
(PID.TID 0000.0001) // =======================================================
(PID.TID 0000.0001) %MON time_tsnumber                =                 17424
(PID.TID 0000.0001) %MON time_secondsf                =   2.0908800000000E+07
(PID.TID 0000.0001) %MON dynstat_eta_max              =   1.3432986307429E-01
(PID.TID 0000.0001) %MON dynstat_eta_min              =  -3.3862397032281E-01
(PID.TID 0000.0001) %MON dynstat_eta_mean             =  -2.0835573289113E-07
(PID.TID 0000.0001) %MON dynstat_eta_sd               =   1.1904398245014E-01
(PID.TID 0000.0001) %MON dynstat_eta_del2             =   7.2250637638504E-07
(PID.TID 0000.0001) %MON dynstat_uvel_max             =   1.2861413769085E-01
(PID.TID 0000.0001) %MON dynstat_uvel_min             =  -1.3067720082110E-01
(PID.TID 0000.0001) %MON dynstat_uvel_mean            =  -5.6215704852634E-08
(PID.TID 0000.0001) %MON dynstat_uvel_sd              =   4.9903647967206E-02
(PID.TID 0000.0001) %MON dynstat_uvel_del2            =   1.0885230418859E-06
(PID.TID 0000.0001) %MON dynstat_vvel_max             =   1.5348499230327E-01
(PID.TID 0000.0001) %MON dynstat_vvel_min             =  -1.2046653730415E-01
(PID.TID 0000.0001) %MON dynstat_vvel_mean            =   2.5386337775083E-08
(PID.TID 0000.0001) %MON dynstat_vvel_sd              =   4.7188768758614E-02
(PID.TID 0000.0001) %MON dynstat_vvel_del2            =   1.3042306506514E-06
(PID.TID 0000.0001) %MON dynstat_wvel_max             =   4.8278133291751E-09
(PID.TID 0000.0001) %MON dynstat_wvel_min             =  -7.6635984750465E-09
(PID.TID 0000.0001) %MON dynstat_wvel_mean            =  -8.1174670384405E-22
(PID.TID 0000.0001) %MON dynstat_wvel_sd              =   2.6330273169184E-09
(PID.TID 0000.0001) %MON dynstat_wvel_del2            =   2.5859991058995E-14
(PID.TID 0000.0001) %MON dynstat_theta_max            =   2.0000000000000E+01
(PID.TID 0000.0001) %MON dynstat_theta_min            =   2.0000000000000E+01
(PID.TID 0000.0001) %MON dynstat_theta_mean           =   1.9999999999999E+01
(PID.TID 0000.0001) %MON dynstat_theta_sd             =   1.1972645097557E-12
(PID.TID 0000.0001) %MON dynstat_theta_del2           =   0.0000000000000E+00
(PID.TID 0000.0001) %MON dynstat_salt_max             =   3.0000000000000E+01
(PID.TID 0000.0001) %MON dynstat_salt_min             =   3.0000000000000E+01
(PID.TID 0000.0001) %MON dynstat_salt_mean            =   2.9999999999998E+01
(PID.TID 0000.0001) %MON dynstat_salt_sd              =   2.1529444893531E-12
(PID.TID 0000.0001) %MON dynstat_salt_del2            =   0.0000000000000E+00
(PID.TID 0000.0001) %MON trAdv_CFL_u_max              =   3.1362287481216E-02
(PID.TID 0000.0001) %MON trAdv_CFL_v_max              =   3.6835084363496E-02
(PID.TID 0000.0001) %MON trAdv_CFL_w_max              =   1.2130781169612E-09
(PID.TID 0000.0001) %MON advcfl_uvel_max              =   3.1362528197065E-02
(PID.TID 0000.0001) %MON advcfl_vvel_max              =   3.6836398152785E-02
(PID.TID 0000.0001) %MON advcfl_wvel_max              =   3.6785272680223E-09
(PID.TID 0000.0001) %MON advcfl_W_hf_max              =   0.0000000000000E+00
(PID.TID 0000.0001) %MON pe_b_mean                    =   1.4499354598271E-05
(PID.TID 0000.0001) %MON ke_max                       =   1.1801844068970E-02
(PID.TID 0000.0001) %MON ke_mean                      =   2.3479601360650E-03
(PID.TID 0000.0001) %MON ke_vol                       =   7.2529629296391E+15
(PID.TID 0000.0001) %MON vort_r_min                   =  -4.2905362141833E-06
(PID.TID 0000.0001) %MON vort_r_max                   =   3.5161179020129E-06
(PID.TID 0000.0001) %MON vort_a_mean                  =   1.0615000000000E-04
(PID.TID 0000.0001) %MON vort_a_sd                    =   3.6413405221965E-06
(PID.TID 0000.0001) %MON vort_p_mean                  =   1.1210870169429E-04
(PID.TID 0000.0001) %MON vort_p_sd                    =   2.1069963618711E-05
(PID.TID 0000.0001) %MON surfExpan_theta_mean         =  -1.6301143791276E-20
(PID.TID 0000.0001) %MON surfExpan_salt_mean          =  -2.4450085980197E-20
(PID.TID 0000.0001) // =======================================================
(PID.TID 0000.0001) // End MONITOR dynamic field statistics
(PID.TID 0000.0001) // =======================================================
 cg2d: Sum(rhs),rhsMax =   3.35246359296347E-03  1.30600619361844E-02
 cg2d: Sum(rhs),rhsMax =   3.35268598024688E-03  1.30602733357046E-02
 cg2d: Sum(rhs),rhsMax =   3.35290764127900E-03  1.30604847306251E-02
 cg2d: Sum(rhs),rhsMax =   3.35312865541421E-03  1.30606961334513E-02
 cg2d: Sum(rhs),rhsMax =   3.35334886670314E-03  1.30609075306100E-02
 cg2d: Sum(rhs),rhsMax =   3.35356833766715E-03  1.30611189423779E-02
 cg2d: Sum(rhs),rhsMax =   3.35378714603245E-03  1.30613303474720E-02
 cg2d: Sum(rhs),rhsMax =   3.35400520554442E-03  1.30615417647907E-02
 cg2d: Sum(rhs),rhsMax =   3.35422253556181E-03  1.30617531782912E-02
 cg2d: Sum(rhs),rhsMax =   3.35443922702488E-03  1.30619645997115E-02
 cg2d: Sum(rhs),rhsMax =   3.35465520221865E-03  1.30621760244613E-02
 cg2d: Sum(rhs),rhsMax =   3.35487047882823E-03  1.30623874577667E-02
 cg2d: Sum(rhs),rhsMax =   3.35508503115159E-03  1.30625988967455E-02
 cg2d: Sum(rhs),rhsMax =   3.35529884354749E-03  1.30628103417294E-02
 cg2d: Sum(rhs),rhsMax =   3.35551193920837E-03  1.30630217948747E-02
 cg2d: Sum(rhs),rhsMax =   3.35572430784516E-03  1.30632332531241E-02
 cg2d: Sum(rhs),rhsMax =   3.35593597304279E-03  1.30634447229486E-02
 cg2d: Sum(rhs),rhsMax =   3.35614686252911E-03  1.30636562000854E-02
 cg2d: Sum(rhs),rhsMax =   3.35635708866256E-03  1.30638676852925E-02
 cg2d: Sum(rhs),rhsMax =   3.35656641045893E-03  1.30640791746946E-02
 cg2d: Sum(rhs),rhsMax =   3.35677513624912E-03  1.30642906770626E-02
 cg2d: Sum(rhs),rhsMax =   3.35698308836697E-03  1.30645021945127E-02
 cg2d: Sum(rhs),rhsMax =   3.35719039838576E-03  1.30647137204590E-02
 cg2d: Sum(rhs),rhsMax =   3.35739682675154E-03  1.30649252552630E-02
 cg2d: Sum(rhs),rhsMax =   3.35760261192754E-03  1.30651367964820E-02
 cg2d: Sum(rhs),rhsMax =   3.35780765689745E-03  1.30653483527094E-02
 cg2d: Sum(rhs),rhsMax =   3.35801198166217E-03  1.30655599211766E-02
 cg2d: Sum(rhs),rhsMax =   3.35834511098719E-03  1.30657715133659E-02
 cg2d: Sum(rhs),rhsMax =   3.35867694271449E-03  1.30659831064675E-02
 cg2d: Sum(rhs),rhsMax =   3.35903123157111E-03  1.30661947088102E-02
 cg2d: Sum(rhs),rhsMax =   3.35938402360378E-03  1.30664063229116E-02
 cg2d: Sum(rhs),rhsMax =   3.35973558589595E-03  1.30666179574614E-02
 cg2d: Sum(rhs),rhsMax =   3.36008547460951E-03  1.30668296035570E-02
 cg2d: Sum(rhs),rhsMax =   3.36043409684888E-03  1.30670412666285E-02
 cg2d: Sum(rhs),rhsMax =   3.36078117416672E-03  1.30672529336598E-02
 cg2d: Sum(rhs),rhsMax =   3.36112691269726E-03  1.30674646308732E-02
 cg2d: Sum(rhs),rhsMax =   3.36147112399612E-03  1.30676763365050E-02
 cg2d: Sum(rhs),rhsMax =   3.36181387010664E-03  1.30678880659324E-02
 cg2d: Sum(rhs),rhsMax =   3.36215524220164E-03  1.30680998041074E-02
 cg2d: Sum(rhs),rhsMax =   3.36249507230444E-03  1.30683115609720E-02
 cg2d: Sum(rhs),rhsMax =   3.36283351052644E-03  1.30685233359703E-02
 cg2d: Sum(rhs),rhsMax =   3.36317040763584E-03  1.30687351352592E-02
 cg2d: Sum(rhs),rhsMax =   3.36350588670762E-03  1.30689469406453E-02
 cg2d: Sum(rhs),rhsMax =   3.36383987898181E-03  1.30691587696757E-02
 cg2d: Sum(rhs),rhsMax =   3.36417245263475E-03  1.30693706147063E-02
 cg2d: Sum(rhs),rhsMax =   3.36450356600169E-03  1.30695824838026E-02
 cg2d: Sum(rhs),rhsMax =   3.36483318301154E-03  1.30697943654857E-02
 cg2d: Sum(rhs),rhsMax =   3.36516136201821E-03  1.30700062748372E-02
 cg2d: Sum(rhs),rhsMax =   3.36548774696963E-03  1.30702182024299E-02
 cg2d: Sum(rhs),rhsMax =   3.36581290519032E-03  1.30704301547881E-02
 cg2d: Sum(rhs),rhsMax =   3.36613653924027E-03  1.30706421233713E-02
 cg2d: Sum(rhs),rhsMax =   3.36645881266350E-03  1.30708541156512E-02
 cg2d: Sum(rhs),rhsMax =   3.36677951317586E-03  1.30710661262490E-02
 cg2d: Sum(rhs),rhsMax =   3.36709876103351E-03  1.30712781627340E-02
 cg2d: Sum(rhs),rhsMax =   3.36741650073623E-03  1.30714902173859E-02
 cg2d: Sum(rhs),rhsMax =   3.36773268973342E-03  1.30717022995938E-02
 cg2d: Sum(rhs),rhsMax =   3.36804745027337E-03  1.30719143998278E-02
 cg2d: Sum(rhs),rhsMax =   3.36836060643653E-03  1.30721265241111E-02
 cg2d: Sum(rhs),rhsMax =   3.36867230325774E-03  1.30723386779977E-02
 cg2d: Sum(rhs),rhsMax =   3.36898253321854E-03  1.30725508598170E-02
 cg2d: Sum(rhs),rhsMax =   3.36929121222894E-03  1.30727630596814E-02
 cg2d: Sum(rhs),rhsMax =   3.36959832177541E-03  1.30729752886431E-02
 cg2d: Sum(rhs),rhsMax =   3.36990397892865E-03  1.30731875378776E-02
 cg2d: Sum(rhs),rhsMax =   3.37020809765987E-03  1.30733998151741E-02
 cg2d: Sum(rhs),rhsMax =   3.37051071822683E-03  1.30736121203470E-02
 cg2d: Sum(rhs),rhsMax =   3.37081179163655E-03  1.30738244531972E-02
 cg2d: Sum(rhs),rhsMax =   3.37111136715413E-03  1.30740368125501E-02
 cg2d: Sum(rhs),rhsMax =   3.37140935628043E-03  1.30742492018046E-02
 cg2d: Sum(rhs),rhsMax =   3.37170584036529E-03  1.30744616162323E-02
 cg2d: Sum(rhs),rhsMax =   3.37200078616033E-03  1.30746740627019E-02
 cg2d: Sum(rhs),rhsMax =   3.37231497236318E-03  1.30748865303302E-02
 cg2d: Sum(rhs),rhsMax =   3.37262742217056E-03  1.30750990275953E-02
(PID.TID 0000.0001)      cg2d_init_res =   1.58307423459896E-03
(PID.TID 0000.0001)      cg2d_iters(min,last) =      -1     352
(PID.TID 0000.0001)      cg2d_last_res =   9.92212765992217E-08
(PID.TID 0000.0001) // =======================================================
(PID.TID 0000.0001) // Begin MONITOR dynamic field statistics
(PID.TID 0000.0001) // =======================================================
(PID.TID 0000.0001) %MON time_tsnumber                =                 17496
(PID.TID 0000.0001) %MON time_secondsf                =   2.0995200000000E+07
(PID.TID 0000.0001) %MON dynstat_eta_max              =   1.3465098011870E-01
(PID.TID 0000.0001) %MON dynstat_eta_min              =  -3.3926692575527E-01
(PID.TID 0000.0001) %MON dynstat_eta_mean             =  -2.0987300915003E-07
(PID.TID 0000.0001) %MON dynstat_eta_sd               =   1.1918920768626E-01
(PID.TID 0000.0001) %MON dynstat_eta_del2             =   7.2336854727680E-07
(PID.TID 0000.0001) %MON dynstat_uvel_max             =   1.2879541136856E-01
(PID.TID 0000.0001) %MON dynstat_uvel_min             =  -1.3074923228087E-01
(PID.TID 0000.0001) %MON dynstat_uvel_mean            =  -4.3966491333512E-08
(PID.TID 0000.0001) %MON dynstat_uvel_sd              =   4.9952350543949E-02
(PID.TID 0000.0001) %MON dynstat_uvel_del2            =   1.0887689486003E-06
(PID.TID 0000.0001) %MON dynstat_vvel_max             =   1.5388229906423E-01
(PID.TID 0000.0001) %MON dynstat_vvel_min             =  -1.2069120928860E-01
(PID.TID 0000.0001) %MON dynstat_vvel_mean            =   3.3695321302279E-08
(PID.TID 0000.0001) %MON dynstat_vvel_sd              =   4.7281502582350E-02
(PID.TID 0000.0001) %MON dynstat_vvel_del2            =   1.3045618302015E-06
(PID.TID 0000.0001) %MON dynstat_wvel_max             =   4.7668607812375E-09
(PID.TID 0000.0001) %MON dynstat_wvel_min             =  -7.4228117056191E-09
(PID.TID 0000.0001) %MON dynstat_wvel_mean            =   8.2845921153587E-21
(PID.TID 0000.0001) %MON dynstat_wvel_sd              =   2.6251022471484E-09
(PID.TID 0000.0001) %MON dynstat_wvel_del2            =   2.6256219390770E-14
(PID.TID 0000.0001) %MON dynstat_theta_max            =   2.0000000000000E+01
(PID.TID 0000.0001) %MON dynstat_theta_min            =   2.0000000000000E+01
(PID.TID 0000.0001) %MON dynstat_theta_mean           =   1.9999999999999E+01
(PID.TID 0000.0001) %MON dynstat_theta_sd             =   1.1972645097557E-12
(PID.TID 0000.0001) %MON dynstat_theta_del2           =   0.0000000000000E+00
(PID.TID 0000.0001) %MON dynstat_salt_max             =   3.0000000000000E+01
(PID.TID 0000.0001) %MON dynstat_salt_min             =   3.0000000000000E+01
(PID.TID 0000.0001) %MON dynstat_salt_mean            =   2.9999999999998E+01
(PID.TID 0000.0001) %MON dynstat_salt_sd              =   2.1529444893531E-12
(PID.TID 0000.0001) %MON dynstat_salt_del2            =   0.0000000000000E+00
(PID.TID 0000.0001) %MON trAdv_CFL_u_max              =   3.1379581731490E-02
(PID.TID 0000.0001) %MON trAdv_CFL_v_max              =   3.6930418043460E-02
(PID.TID 0000.0001) %MON trAdv_CFL_w_max              =   1.1970808464391E-09
(PID.TID 0000.0001) %MON advcfl_uvel_max              =   3.1379815747408E-02
(PID.TID 0000.0001) %MON advcfl_vvel_max              =   3.6931751775415E-02
(PID.TID 0000.0001) %MON advcfl_wvel_max              =   3.5629496186972E-09
(PID.TID 0000.0001) %MON advcfl_W_hf_max              =   0.0000000000000E+00
(PID.TID 0000.0001) %MON pe_b_mean                    =   1.4534752550144E-05
(PID.TID 0000.0001) %MON ke_max                       =   1.1861101094818E-02
(PID.TID 0000.0001) %MON ke_mean                      =   2.3547413899948E-03
(PID.TID 0000.0001) %MON ke_vol                       =   7.2529629296391E+15
(PID.TID 0000.0001) %MON vort_r_min                   =  -4.2950683261775E-06
(PID.TID 0000.0001) %MON vort_r_max                   =   3.5217626847129E-06
(PID.TID 0000.0001) %MON vort_a_mean                  =   1.0615000000000E-04
(PID.TID 0000.0001) %MON vort_a_sd                    =   3.6415213506782E-06
(PID.TID 0000.0001) %MON vort_p_mean                  =   1.1210870169429E-04
(PID.TID 0000.0001) %MON vort_p_sd                    =   2.1070062732501E-05
(PID.TID 0000.0001) %MON surfExpan_theta_mean         =   1.6562375915332E-19
(PID.TID 0000.0001) %MON surfExpan_salt_mean          =   2.4844150003830E-19
(PID.TID 0000.0001) // =======================================================
(PID.TID 0000.0001) // End MONITOR dynamic field statistics
(PID.TID 0000.0001) // =======================================================
 cg2d: Sum(rhs),rhsMax =   3.37293830535695E-03  1.30753115614716E-02
 cg2d: Sum(rhs),rhsMax =   3.37324741707391E-03  1.30755241156377E-02
 cg2d: Sum(rhs),rhsMax =   3.37355493741868E-03  1.30757367102015E-02
 cg2d: Sum(rhs),rhsMax =   3.37386066520716E-03  1.30759493260896E-02
 cg2d: Sum(rhs),rhsMax =   3.37416474417821E-03  1.30761619817656E-02
 cg2d: Sum(rhs),rhsMax =   3.37446715333012E-03  1.30763746604552E-02
 cg2d: Sum(rhs),rhsMax =   3.37476771296049E-03  1.30765873772852E-02
 cg2d: Sum(rhs),rhsMax =   3.37506674621197E-03  1.30768001283512E-02
 cg2d: Sum(rhs),rhsMax =   3.37536407895788E-03  1.30770129124975E-02
 cg2d: Sum(rhs),rhsMax =   3.37565971385542E-03  1.30772257217978E-02
 cg2d: Sum(rhs),rhsMax =   3.37595359756690E-03  1.30774385635787E-02
 cg2d: Sum(rhs),rhsMax =   3.37624581860729E-03  1.30776514458231E-02
 cg2d: Sum(rhs),rhsMax =   3.37653633137066E-03  1.30778643586035E-02
 cg2d: Sum(rhs),rhsMax =   3.37682510607811E-03  1.30780773014440E-02
 cg2d: Sum(rhs),rhsMax =   3.37711222627646E-03  1.30782902820321E-02
 cg2d: Sum(rhs),rhsMax =   3.37739759321766E-03  1.30785032997407E-02
 cg2d: Sum(rhs),rhsMax =   3.37768118336245E-03  1.30787163489293E-02
 cg2d: Sum(rhs),rhsMax =   3.37796311580534E-03  1.30789294364567E-02
 cg2d: Sum(rhs),rhsMax =   3.37824328223080E-03  1.30791425637695E-02
 cg2d: Sum(rhs),rhsMax =   3.37852174482046E-03  1.30793557239993E-02
 cg2d: Sum(rhs),rhsMax =   3.37879849262430E-03  1.30795689207318E-02
 cg2d: Sum(rhs),rhsMax =   3.37907348895026E-03  1.30797821514816E-02
 cg2d: Sum(rhs),rhsMax =   3.37934672738987E-03  1.30799954184617E-02
 cg2d: Sum(rhs),rhsMax =   3.37961829019123E-03  1.30802087279608E-02
 cg2d: Sum(rhs),rhsMax =   3.37988807421882E-03  1.30804220763646E-02
 cg2d: Sum(rhs),rhsMax =   3.38015611450989E-03  1.30806354607470E-02
 cg2d: Sum(rhs),rhsMax =   3.38042239490523E-03  1.30808488869807E-02
 cg2d: Sum(rhs),rhsMax =   3.38068697989182E-03  1.30810623461096E-02
 cg2d: Sum(rhs),rhsMax =   3.38094975025779E-03  1.30812758464800E-02
 cg2d: Sum(rhs),rhsMax =   3.38121069350807E-03  1.30814893883559E-02
 cg2d: Sum(rhs),rhsMax =   3.38146999211182E-03  1.30817029753832E-02
 cg2d: Sum(rhs),rhsMax =   3.38172748869276E-03  1.30819165975062E-02
 cg2d: Sum(rhs),rhsMax =   3.38200293556676E-03  1.30821302479625E-02
 cg2d: Sum(rhs),rhsMax =   3.38239314746193E-03  1.30823439646173E-02
 cg2d: Sum(rhs),rhsMax =   3.38280130020858E-03  1.30825577062825E-02
 cg2d: Sum(rhs),rhsMax =   3.38320646490868E-03  1.30827714905790E-02
 cg2d: Sum(rhs),rhsMax =   3.38360870610701E-03  1.30829853206876E-02
 cg2d: Sum(rhs),rhsMax =   3.38400788735704E-03  1.30831991921579E-02
 cg2d: Sum(rhs),rhsMax =   3.38440411534534E-03  1.30834131081875E-02
 cg2d: Sum(rhs),rhsMax =   3.38479721658724E-03  1.30836270675269E-02
 cg2d: Sum(rhs),rhsMax =   3.38520695717288E-03  1.30838410764819E-02
 cg2d: Sum(rhs),rhsMax =   3.38561348941693E-03  1.30840551161209E-02
 cg2d: Sum(rhs),rhsMax =   3.38601692080473E-03  1.30842692082350E-02
 cg2d: Sum(rhs),rhsMax =   3.38641714656423E-03  1.30844833374972E-02
 cg2d: Sum(rhs),rhsMax =   3.38681424609503E-03  1.30846975219659E-02
 cg2d: Sum(rhs),rhsMax =   3.38720804883157E-03  1.30849117464592E-02
 cg2d: Sum(rhs),rhsMax =   3.38759875972178E-03  1.30851260187079E-02
 cg2d: Sum(rhs),rhsMax =   3.38798630546521E-03  1.30853403307876E-02
 cg2d: Sum(rhs),rhsMax =   3.38838939168910E-03  1.30855547046334E-02
 cg2d: Sum(rhs),rhsMax =   3.38878905572757E-03  1.30857691096450E-02
 cg2d: Sum(rhs),rhsMax =   3.38918559845614E-03  1.30859835684391E-02
 cg2d: Sum(rhs),rhsMax =   3.38957871876304E-03  1.30861980673073E-02
 cg2d: Sum(rhs),rhsMax =   3.38996861200180E-03  1.30864126253891E-02
 cg2d: Sum(rhs),rhsMax =   3.39035515474567E-03  1.30866272187095E-02
 cg2d: Sum(rhs),rhsMax =   3.39073831378321E-03  1.30868418688180E-02
 cg2d: Sum(rhs),rhsMax =   3.39111820497803E-03  1.30870565620559E-02
 cg2d: Sum(rhs),rhsMax =   3.39149475849910E-03  1.30872713149084E-02
 cg2d: Sum(rhs),rhsMax =   3.39186810472623E-03  1.30874861013797E-02
 cg2d: Sum(rhs),rhsMax =   3.39223810801276E-03  1.30877009498860E-02
 cg2d: Sum(rhs),rhsMax =   3.39262281903617E-03  1.30879158445467E-02
 cg2d: Sum(rhs),rhsMax =   3.39300405126085E-03  1.30881307840582E-02
 cg2d: Sum(rhs),rhsMax =   3.39338198996890E-03  1.30883457780293E-02
 cg2d: Sum(rhs),rhsMax =   3.39375627707358E-03  1.30885608153642E-02
 cg2d: Sum(rhs),rhsMax =   3.39412730787991E-03  1.30887759183430E-02
 cg2d: Sum(rhs),rhsMax =   3.39449483862479E-03  1.30889910621741E-02
 cg2d: Sum(rhs),rhsMax =   3.39485897920669E-03  1.30892062668234E-02
 cg2d: Sum(rhs),rhsMax =   3.39521959811479E-03  1.30894215124870E-02
 cg2d: Sum(rhs),rhsMax =   3.39557685814544E-03  1.30896368215022E-02
 cg2d: Sum(rhs),rhsMax =   3.39593056235383E-03  1.30898521741233E-02
 cg2d: Sum(rhs),rhsMax =   3.39628093739082E-03  1.30900675901679E-02
 cg2d: Sum(rhs),rhsMax =   3.39662786573745E-03  1.30902830478129E-02
 cg2d: Sum(rhs),rhsMax =   3.39697142363267E-03  1.30904985694249E-02
(PID.TID 0000.0001)      cg2d_init_res =   1.57535185844740E-03
(PID.TID 0000.0001)      cg2d_iters(min,last) =      -1     342
(PID.TID 0000.0001)      cg2d_last_res =   9.53223028703887E-08
(PID.TID 0000.0001) // =======================================================
(PID.TID 0000.0001) // Begin MONITOR dynamic field statistics
(PID.TID 0000.0001) // =======================================================
(PID.TID 0000.0001) %MON time_tsnumber                =                 17568
(PID.TID 0000.0001) %MON time_secondsf                =   2.1081600000000E+07
(PID.TID 0000.0001) %MON dynstat_eta_max              =   1.3494269906394E-01
(PID.TID 0000.0001) %MON dynstat_eta_min              =  -3.3989365681987E-01
(PID.TID 0000.0001) %MON dynstat_eta_mean             =  -2.1163859229121E-07
(PID.TID 0000.0001) %MON dynstat_eta_sd               =   1.1933181448005E-01
(PID.TID 0000.0001) %MON dynstat_eta_del2             =   7.2419366569411E-07
(PID.TID 0000.0001) %MON dynstat_uvel_max             =   1.2896085526841E-01
(PID.TID 0000.0001) %MON dynstat_uvel_min             =  -1.3081791508521E-01
(PID.TID 0000.0001) %MON dynstat_uvel_mean            =  -3.0089095012672E-08
(PID.TID 0000.0001) %MON dynstat_uvel_sd              =   4.9997523596397E-02
(PID.TID 0000.0001) %MON dynstat_uvel_del2            =   1.0890080105145E-06
(PID.TID 0000.0001) %MON dynstat_vvel_max             =   1.5428471363183E-01
(PID.TID 0000.0001) %MON dynstat_vvel_min             =  -1.2092777685465E-01
(PID.TID 0000.0001) %MON dynstat_vvel_mean            =   3.9701790771379E-08
(PID.TID 0000.0001) %MON dynstat_vvel_sd              =   4.7375781154917E-02
(PID.TID 0000.0001) %MON dynstat_vvel_del2            =   1.3045050561086E-06
(PID.TID 0000.0001) %MON dynstat_wvel_max             =   4.6295871678740E-09
(PID.TID 0000.0001) %MON dynstat_wvel_min             =  -7.1865360229276E-09
(PID.TID 0000.0001) %MON dynstat_wvel_mean            =  -4.3408150721423E-21
(PID.TID 0000.0001) %MON dynstat_wvel_sd              =   2.6151069859503E-09
(PID.TID 0000.0001) %MON dynstat_wvel_del2            =   2.6017975870749E-14
(PID.TID 0000.0001) %MON dynstat_theta_max            =   2.0000000000000E+01
(PID.TID 0000.0001) %MON dynstat_theta_min            =   2.0000000000000E+01
(PID.TID 0000.0001) %MON dynstat_theta_mean           =   1.9999999999999E+01
(PID.TID 0000.0001) %MON dynstat_theta_sd             =   1.1972645097557E-12
(PID.TID 0000.0001) %MON dynstat_theta_del2           =   0.0000000000000E+00
(PID.TID 0000.0001) %MON dynstat_salt_max             =   3.0000000000000E+01
(PID.TID 0000.0001) %MON dynstat_salt_min             =   3.0000000000000E+01
(PID.TID 0000.0001) %MON dynstat_salt_mean            =   2.9999999999998E+01
(PID.TID 0000.0001) %MON dynstat_salt_sd              =   2.1529444893531E-12
(PID.TID 0000.0001) %MON dynstat_salt_del2            =   0.0000000000000E+00
(PID.TID 0000.0001) %MON trAdv_CFL_u_max              =   3.1396075033113E-02
(PID.TID 0000.0001) %MON trAdv_CFL_v_max              =   3.7026983475192E-02
(PID.TID 0000.0001) %MON trAdv_CFL_w_max              =   1.1613428547331E-09
(PID.TID 0000.0001) %MON advcfl_uvel_max              =   3.1396299620451E-02
(PID.TID 0000.0001) %MON advcfl_vvel_max              =   3.7028331271640E-02
(PID.TID 0000.0001) %MON advcfl_wvel_max              =   3.4495372910053E-09
(PID.TID 0000.0001) %MON advcfl_W_hf_max              =   0.0000000000000E+00
(PID.TID 0000.0001) %MON pe_b_mean                    =   1.4569554265810E-05
(PID.TID 0000.0001) %MON ke_max                       =   1.1921444492694E-02
(PID.TID 0000.0001) %MON ke_mean                      =   2.3614307397802E-03
(PID.TID 0000.0001) %MON ke_vol                       =   7.2529629296391E+15
(PID.TID 0000.0001) %MON vort_r_min                   =  -4.2995973098070E-06
(PID.TID 0000.0001) %MON vort_r_max                   =   3.5256736049655E-06
(PID.TID 0000.0001) %MON vort_a_mean                  =   1.0615000000000E-04
(PID.TID 0000.0001) %MON vort_a_sd                    =   3.6416931996153E-06
(PID.TID 0000.0001) %MON vort_p_mean                  =   1.1210870169429E-04
(PID.TID 0000.0001) %MON vort_p_sd                    =   2.1070161379952E-05
(PID.TID 0000.0001) %MON surfExpan_theta_mean         =  -8.6963893243921E-20
(PID.TID 0000.0001) %MON surfExpan_salt_mean          =  -1.3043482173343E-19
(PID.TID 0000.0001) // =======================================================
(PID.TID 0000.0001) // End MONITOR dynamic field statistics
(PID.TID 0000.0001) // =======================================================
 cg2d: Sum(rhs),rhsMax =   3.39731156605469E-03  1.30907141372558E-02
 cg2d: Sum(rhs),rhsMax =   3.39766558258951E-03  1.30909297671066E-02
 cg2d: Sum(rhs),rhsMax =   3.39801604157431E-03  1.30911454412621E-02
 cg2d: Sum(rhs),rhsMax =   3.39836304831496E-03  1.30913611799436E-02
 cg2d: Sum(rhs),rhsMax =   3.39870634867254E-03  1.30915769661028E-02
 cg2d: Sum(rhs),rhsMax =   3.39904621235205E-03  1.30917928188113E-02
 cg2d: Sum(rhs),rhsMax =   3.39938251690221E-03  1.30920087157676E-02
 cg2d: Sum(rhs),rhsMax =   3.39971532502542E-03  1.30922246777511E-02
 cg2d: Sum(rhs),rhsMax =   3.40004465989505E-03  1.30924406875852E-02
 cg2d: Sum(rhs),rhsMax =   3.40037043101191E-03  1.30926567623274E-02
 cg2d: Sum(rhs),rhsMax =   3.40069274179066E-03  1.30928728888297E-02
 cg2d: Sum(rhs),rhsMax =   3.40101152038807E-03  1.30930890790418E-02
 cg2d: Sum(rhs),rhsMax =   3.40132679075620E-03  1.30933053206067E-02
 cg2d: Sum(rhs),rhsMax =   3.40163858740837E-03  1.30935216233591E-02
 cg2d: Sum(rhs),rhsMax =   3.40194687533539E-03  1.30937379747365E-02
 cg2d: Sum(rhs),rhsMax =   3.40225176153662E-03  1.30939543951076E-02
 cg2d: Sum(rhs),rhsMax =   3.40256980769804E-03  1.30941708731028E-02
 cg2d: Sum(rhs),rhsMax =   3.40288420650241E-03  1.30943873995691E-02
 cg2d: Sum(rhs),rhsMax =   3.40319507200255E-03  1.30946040000652E-02
 cg2d: Sum(rhs),rhsMax =   3.40350235297682E-03  1.30948206485565E-02
 cg2d: Sum(rhs),rhsMax =   3.40380602293686E-03  1.30950373691023E-02
 cg2d: Sum(rhs),rhsMax =   3.40410615170513E-03  1.30952541402646E-02
 cg2d: Sum(rhs),rhsMax =   3.40440261442437E-03  1.30954709782734E-02
 cg2d: Sum(rhs),rhsMax =   3.40469560787872E-03  1.30956878737426E-02
 cg2d: Sum(rhs),rhsMax =   3.40498502634033E-03  1.30959048359710E-02
 cg2d: Sum(rhs),rhsMax =   3.40527095100305E-03  1.30961218553757E-02
 cg2d: Sum(rhs),rhsMax =   3.40555332454298E-03  1.30963389409275E-02
 cg2d: Sum(rhs),rhsMax =   3.40583222462414E-03  1.30965560784199E-02
 cg2d: Sum(rhs),rhsMax =   3.40610760396410E-03  1.30967732859083E-02
 cg2d: Sum(rhs),rhsMax =   3.40637949815787E-03  1.30969905501420E-02
 cg2d: Sum(rhs),rhsMax =   3.40664789029431E-03  1.30972078846074E-02
 cg2d: Sum(rhs),rhsMax =   3.40691283774600E-03  1.30974252759784E-02
 cg2d: Sum(rhs),rhsMax =   3.40717417590797E-03  1.30976427355975E-02
 cg2d: Sum(rhs),rhsMax =   3.40744855948475E-03  1.30978602663658E-02
 cg2d: Sum(rhs),rhsMax =   3.40771938893401E-03  1.30980778481300E-02
 cg2d: Sum(rhs),rhsMax =   3.40798663430618E-03  1.30982954998594E-02
 cg2d: Sum(rhs),rhsMax =   3.40825033021116E-03  1.30985132107519E-02
 cg2d: Sum(rhs),rhsMax =   3.40851038160956E-03  1.30987309947277E-02
 cg2d: Sum(rhs),rhsMax =   3.40876699609991E-03  1.30989488359269E-02
 cg2d: Sum(rhs),rhsMax =   3.40902010205527E-03  1.30991667465118E-02
 cg2d: Sum(rhs),rhsMax =   3.40926970806649E-03  1.30993847218867E-02
 cg2d: Sum(rhs),rhsMax =   3.40951576305297E-03  1.30996027617982E-02
 cg2d: Sum(rhs),rhsMax =   3.40975839170549E-03  1.30998208721186E-02
 cg2d: Sum(rhs),rhsMax =   3.40999752787256E-03  1.31000390470239E-02
 cg2d: Sum(rhs),rhsMax =   3.41023323036555E-03  1.31002572888856E-02
 cg2d: Sum(rhs),rhsMax =   3.41046542787481E-03  1.31004755973960E-02
 cg2d: Sum(rhs),rhsMax =   3.41069424298950E-03  1.31006939775894E-02
 cg2d: Sum(rhs),rhsMax =   3.41091966590427E-03  1.31009124207337E-02
 cg2d: Sum(rhs),rhsMax =   3.41114168081511E-03  1.31011309345118E-02
 cg2d: Sum(rhs),rhsMax =   3.41136034555968E-03  1.31013495138125E-02
 cg2d: Sum(rhs),rhsMax =   3.41157564727191E-03  1.31015681634914E-02
 cg2d: Sum(rhs),rhsMax =   3.41178755929633E-03  1.31017868798131E-02
 cg2d: Sum(rhs),rhsMax =   3.41199619103224E-03  1.31020056670096E-02
 cg2d: Sum(rhs),rhsMax =   3.41220146795913E-03  1.31022245211380E-02
 cg2d: Sum(rhs),rhsMax =   3.41240342579055E-03  1.31024434483406E-02
 cg2d: Sum(rhs),rhsMax =   3.41260212245234E-03  1.31026624403151E-02
 cg2d: Sum(rhs),rhsMax =   3.41279751008399E-03  1.31028814998778E-02
 cg2d: Sum(rhs),rhsMax =   3.41300518674302E-03  1.31031006370127E-02
 cg2d: Sum(rhs),rhsMax =   3.41320951126065E-03  1.31033198397614E-02
 cg2d: Sum(rhs),rhsMax =   3.41341051620405E-03  1.31035391195625E-02
 cg2d: Sum(rhs),rhsMax =   3.41360813729611E-03  1.31037584616394E-02
 cg2d: Sum(rhs),rhsMax =   3.41380253574486E-03  1.31039778856242E-02
 cg2d: Sum(rhs),rhsMax =   3.41399364724265E-03  1.31041973718494E-02
 cg2d: Sum(rhs),rhsMax =   3.41418152560506E-03  1.31044169376171E-02
 cg2d: Sum(rhs),rhsMax =   3.41436618180996E-03  1.31046365659916E-02
 cg2d: Sum(rhs),rhsMax =   3.41454761277174E-03  1.31048562775948E-02
 cg2d: Sum(rhs),rhsMax =   3.41472585051162E-03  1.31050760517212E-02
 cg2d: Sum(rhs),rhsMax =   3.41490094667357E-03  1.31052959069061E-02
 cg2d: Sum(rhs),rhsMax =   3.41507291854890E-03  1.31055158275325E-02
 cg2d: Sum(rhs),rhsMax =   3.41524179507625E-03  1.31057358319538E-02
 cg2d: Sum(rhs),rhsMax =   3.41540748608589E-03  1.31059558994780E-02
 cg2d: Sum(rhs),rhsMax =   3.41557019776197E-03  1.31061760496073E-02
(PID.TID 0000.0001)      cg2d_init_res =   1.56909059027800E-03
(PID.TID 0000.0001)      cg2d_iters(min,last) =      -1     338
(PID.TID 0000.0001)      cg2d_last_res =   9.52229616407941E-08
(PID.TID 0000.0001) // =======================================================
(PID.TID 0000.0001) // Begin MONITOR dynamic field statistics
(PID.TID 0000.0001) // =======================================================
(PID.TID 0000.0001) %MON time_tsnumber                =                 17640
(PID.TID 0000.0001) %MON time_secondsf                =   2.1168000000000E+07
(PID.TID 0000.0001) %MON dynstat_eta_max              =   1.3519999436331E-01
(PID.TID 0000.0001) %MON dynstat_eta_min              =  -3.4050312741935E-01
(PID.TID 0000.0001) %MON dynstat_eta_mean             =  -2.1304087925007E-07
(PID.TID 0000.0001) %MON dynstat_eta_sd               =   1.1947195543276E-01
(PID.TID 0000.0001) %MON dynstat_eta_del2             =   7.2498216638392E-07
(PID.TID 0000.0001) %MON dynstat_uvel_max             =   1.2911468609148E-01
(PID.TID 0000.0001) %MON dynstat_uvel_min             =  -1.3088430216635E-01
(PID.TID 0000.0001) %MON dynstat_uvel_mean            =  -1.5140813082367E-08
(PID.TID 0000.0001) %MON dynstat_uvel_sd              =   5.0039942936876E-02
(PID.TID 0000.0001) %MON dynstat_uvel_del2            =   1.0892681522444E-06
(PID.TID 0000.0001) %MON dynstat_vvel_max             =   1.5469037001760E-01
(PID.TID 0000.0001) %MON dynstat_vvel_min             =  -1.2117890104456E-01
(PID.TID 0000.0001) %MON dynstat_vvel_mean            =   4.3196232984660E-08
(PID.TID 0000.0001) %MON dynstat_vvel_sd              =   4.7470721172948E-02
(PID.TID 0000.0001) %MON dynstat_vvel_del2            =   1.3040617188220E-06
(PID.TID 0000.0001) %MON dynstat_wvel_max             =   4.4158395379782E-09
(PID.TID 0000.0001) %MON dynstat_wvel_min             =  -6.9659587839851E-09
(PID.TID 0000.0001) %MON dynstat_wvel_mean            =   1.1719073282651E-20
(PID.TID 0000.0001) %MON dynstat_wvel_sd              =   2.6031080622651E-09
(PID.TID 0000.0001) %MON dynstat_wvel_del2            =   2.5736945224166E-14
(PID.TID 0000.0001) %MON dynstat_theta_max            =   2.0000000000000E+01
(PID.TID 0000.0001) %MON dynstat_theta_min            =   2.0000000000000E+01
(PID.TID 0000.0001) %MON dynstat_theta_mean           =   1.9999999999999E+01
(PID.TID 0000.0001) %MON dynstat_theta_sd             =   1.1972645097557E-12
(PID.TID 0000.0001) %MON dynstat_theta_del2           =   0.0000000000000E+00
(PID.TID 0000.0001) %MON dynstat_salt_max             =   3.0000000000000E+01
(PID.TID 0000.0001) %MON dynstat_salt_min             =   3.0000000000000E+01
(PID.TID 0000.0001) %MON dynstat_salt_mean            =   2.9999999999998E+01
(PID.TID 0000.0001) %MON dynstat_salt_sd              =   2.1529444893531E-12
(PID.TID 0000.0001) %MON dynstat_salt_del2            =   0.0000000000000E+00
(PID.TID 0000.0001) %MON trAdv_CFL_u_max              =   3.1412013870159E-02
(PID.TID 0000.0001) %MON trAdv_CFL_v_max              =   3.7124333453279E-02
(PID.TID 0000.0001) %MON trAdv_CFL_w_max              =   1.1076321347901E-09
(PID.TID 0000.0001) %MON advcfl_uvel_max              =   3.1412232519923E-02
(PID.TID 0000.0001) %MON advcfl_vvel_max              =   3.7125688804223E-02
(PID.TID 0000.0001) %MON advcfl_wvel_max              =   3.3436602163129E-09
(PID.TID 0000.0001) %MON advcfl_W_hf_max              =   0.0000000000000E+00
(PID.TID 0000.0001) %MON pe_b_mean                    =   1.4603794759750E-05
(PID.TID 0000.0001) %MON ke_max                       =   1.1982608390359E-02
(PID.TID 0000.0001) %MON ke_mean                      =   2.3680250480653E-03
(PID.TID 0000.0001) %MON ke_vol                       =   7.2529629296391E+15
(PID.TID 0000.0001) %MON vort_r_min                   =  -4.3041703417548E-06
(PID.TID 0000.0001) %MON vort_r_max                   =   3.5277732649629E-06
(PID.TID 0000.0001) %MON vort_a_mean                  =   1.0615000000000E-04
(PID.TID 0000.0001) %MON vort_a_sd                    =   3.6418564145085E-06
(PID.TID 0000.0001) %MON vort_p_mean                  =   1.1210870169429E-04
(PID.TID 0000.0001) %MON vort_p_sd                    =   2.1070258251017E-05
(PID.TID 0000.0001) %MON surfExpan_theta_mean         =   2.3431817043661E-19
(PID.TID 0000.0001) %MON surfExpan_salt_mean          =   3.5148238429968E-19
(PID.TID 0000.0001) // =======================================================
(PID.TID 0000.0001) // End MONITOR dynamic field statistics
(PID.TID 0000.0001) // =======================================================
 cg2d: Sum(rhs),rhsMax =   3.41572976166233E-03  1.31063962620002E-02
 cg2d: Sum(rhs),rhsMax =   3.41588634841233E-03  1.31066165590087E-02
 cg2d: Sum(rhs),rhsMax =   3.41603996888197E-03  1.31068369257433E-02
 cg2d: Sum(rhs),rhsMax =   3.41619058935256E-03  1.31070573760228E-02
 cg2d: Sum(rhs),rhsMax =   3.41633829156181E-03  1.31072778903042E-02
 cg2d: Sum(rhs),rhsMax =   3.41648303186943E-03  1.31074984849696E-02
 cg2d: Sum(rhs),rhsMax =   3.41662490573041E-03  1.31077191481566E-02
 cg2d: Sum(rhs),rhsMax =   3.41676393621405E-03  1.31079398978569E-02
 cg2d: Sum(rhs),rhsMax =   3.41690009610067E-03  1.31081607136744E-02
 cg2d: Sum(rhs),rhsMax =   3.41703348482880E-03  1.31083816157617E-02
 cg2d: Sum(rhs),rhsMax =   3.41716406694234E-03  1.31086025849712E-02
 cg2d: Sum(rhs),rhsMax =   3.41729190877453E-03  1.31088236402886E-02
 cg2d: Sum(rhs),rhsMax =   3.41741704049286E-03  1.31090447619856E-02
 cg2d: Sum(rhs),rhsMax =   3.41755395275004E-03  1.31092659669329E-02
 cg2d: Sum(rhs),rhsMax =   3.41768809612529E-03  1.31094872447694E-02
 cg2d: Sum(rhs),rhsMax =   3.41781955699978E-03  1.31097086058103E-02
 cg2d: Sum(rhs),rhsMax =   3.41794831434665E-03  1.31099300376908E-02
 cg2d: Sum(rhs),rhsMax =   3.41807439464808E-03  1.31101515545773E-02
 cg2d: Sum(rhs),rhsMax =   3.41819785878128E-03  1.31103731465858E-02
 cg2d: Sum(rhs),rhsMax =   3.41831868195716E-03  1.31105948256263E-02
 cg2d: Sum(rhs),rhsMax =   3.41843703180686E-03  1.31108165719937E-02
 cg2d: Sum(rhs),rhsMax =   3.41855282249315E-03  1.31110384011820E-02
 cg2d: Sum(rhs),rhsMax =   3.41866616979701E-03  1.31112603074640E-02
 cg2d: Sum(rhs),rhsMax =   3.41877701751057E-03  1.31114822958100E-02
 cg2d: Sum(rhs),rhsMax =   3.41888549386464E-03  1.31117043618922E-02
 cg2d: Sum(rhs),rhsMax =   3.41899156275347E-03  1.31119265099103E-02
 cg2d: Sum(rhs),rhsMax =   3.41909531893014E-03  1.31121487368594E-02
 cg2d: Sum(rhs),rhsMax =   3.41919675513983E-03  1.31123710460036E-02
 cg2d: Sum(rhs),rhsMax =   3.41929593412085E-03  1.31125934328474E-02
 cg2d: Sum(rhs),rhsMax =   3.41939292066414E-03  1.31128159028264E-02
 cg2d: Sum(rhs),rhsMax =   3.41948772286568E-03  1.31130384514203E-02
 cg2d: Sum(rhs),rhsMax =   3.41958036538467E-03  1.31132610842377E-02
 cg2d: Sum(rhs),rhsMax =   3.41967088195746E-03  1.31134837942384E-02
 cg2d: Sum(rhs),rhsMax =   3.41975934955578E-03  1.31137065902538E-02
 cg2d: Sum(rhs),rhsMax =   3.41984574875281E-03  1.31139294651125E-02
 cg2d: Sum(rhs),rhsMax =   3.41993024550938E-03  1.31141524247663E-02
 cg2d: Sum(rhs),rhsMax =   3.42001278979719E-03  1.31143754604218E-02
 cg2d: Sum(rhs),rhsMax =   3.42009344102021E-03  1.31145985868471E-02
 cg2d: Sum(rhs),rhsMax =   3.42017223158100E-03  1.31148217869123E-02
 cg2d: Sum(rhs),rhsMax =   3.42024917927245E-03  1.31150450749823E-02
 cg2d: Sum(rhs),rhsMax =   3.42032438837587E-03  1.31152684416855E-02
 cg2d: Sum(rhs),rhsMax =   3.42041214121410E-03  1.31154919009938E-02
 cg2d: Sum(rhs),rhsMax =   3.42049809063931E-03  1.31157154326158E-02
 cg2d: Sum(rhs),rhsMax =   3.42058233903829E-03  1.31159390563408E-02
 cg2d: Sum(rhs),rhsMax =   3.42066493459427E-03  1.31161627544876E-02
 cg2d: Sum(rhs),rhsMax =   3.42074583166388E-03  1.31163865436919E-02
 cg2d: Sum(rhs),rhsMax =   3.42082521010530E-03  1.31166104168765E-02
 cg2d: Sum(rhs),rhsMax =   3.42090303974979E-03  1.31168343810772E-02
 cg2d: Sum(rhs),rhsMax =   3.42097943312171E-03  1.31170584170001E-02
 cg2d: Sum(rhs),rhsMax =   3.42105433520190E-03  1.31172825443368E-02
 cg2d: Sum(rhs),rhsMax =   3.42112788280158E-03  1.31175067502556E-02
 cg2d: Sum(rhs),rhsMax =   3.42120008454863E-03  1.31177310507216E-02
 cg2d: Sum(rhs),rhsMax =   3.42127095551031E-03  1.31179554275167E-02
 cg2d: Sum(rhs),rhsMax =   3.42134060691548E-03  1.31181798973091E-02
 cg2d: Sum(rhs),rhsMax =   3.42140900002277E-03  1.31184044459666E-02
 cg2d: Sum(rhs),rhsMax =   3.42147624726636E-03  1.31186290875935E-02
 cg2d: Sum(rhs),rhsMax =   3.42154230482749E-03  1.31188538095145E-02
 cg2d: Sum(rhs),rhsMax =   3.42160729189773E-03  1.31190786237388E-02
 cg2d: Sum(rhs),rhsMax =   3.42167126284892E-03  1.31193035164089E-02
 cg2d: Sum(rhs),rhsMax =   3.42173410250528E-03  1.31195285026183E-02
 cg2d: Sum(rhs),rhsMax =   3.42179607789327E-03  1.31197535728486E-02
 cg2d: Sum(rhs),rhsMax =   3.42185711379122E-03  1.31199787362327E-02
 cg2d: Sum(rhs),rhsMax =   3.42191724202006E-03  1.31202039771727E-02
 cg2d: Sum(rhs),rhsMax =   3.42197654685100E-03  1.31204293127732E-02
 cg2d: Sum(rhs),rhsMax =   3.42203502640538E-03  1.31206547246774E-02
 cg2d: Sum(rhs),rhsMax =   3.42209276150137E-03  1.31208802364435E-02
 cg2d: Sum(rhs),rhsMax =   3.42214970631575E-03  1.31211058276632E-02
 cg2d: Sum(rhs),rhsMax =   3.42220592903834E-03  1.31213315142396E-02
 cg2d: Sum(rhs),rhsMax =   3.42227551151368E-03  1.31215572861918E-02
 cg2d: Sum(rhs),rhsMax =   3.42234429809501E-03  1.31217831407093E-02
 cg2d: Sum(rhs),rhsMax =   3.42241236655221E-03  1.31220090927878E-02
 cg2d: Sum(rhs),rhsMax =   3.42247973395785E-03  1.31222351229861E-02
(PID.TID 0000.0001)      cg2d_init_res =   1.56382544503205E-03
(PID.TID 0000.0001)      cg2d_iters(min,last) =      -1     335
(PID.TID 0000.0001)      cg2d_last_res =   9.85654834914996E-08
(PID.TID 0000.0001) // =======================================================
(PID.TID 0000.0001) // Begin MONITOR dynamic field statistics
(PID.TID 0000.0001) // =======================================================
(PID.TID 0000.0001) %MON time_tsnumber                =                 17712
(PID.TID 0000.0001) %MON time_secondsf                =   2.1254400000000E+07
(PID.TID 0000.0001) %MON dynstat_eta_max              =   1.3541891646758E-01
(PID.TID 0000.0001) %MON dynstat_eta_min              =  -3.4109485350776E-01
(PID.TID 0000.0001) %MON dynstat_eta_mean             =  -2.1372768167205E-07
(PID.TID 0000.0001) %MON dynstat_eta_sd               =   1.1960984712856E-01
(PID.TID 0000.0001) %MON dynstat_eta_del2             =   7.2573539934464E-07
(PID.TID 0000.0001) %MON dynstat_uvel_max             =   1.2926025410142E-01
(PID.TID 0000.0001) %MON dynstat_uvel_min             =  -1.3094942312896E-01
(PID.TID 0000.0001) %MON dynstat_uvel_mean            =   2.8189833286877E-10
(PID.TID 0000.0001) %MON dynstat_uvel_sd              =   5.0080469117213E-02
(PID.TID 0000.0001) %MON dynstat_uvel_del2            =   1.0895749867724E-06
(PID.TID 0000.0001) %MON dynstat_vvel_max             =   1.5509729359559E-01
(PID.TID 0000.0001) %MON dynstat_vvel_min             =  -1.2144167666104E-01
(PID.TID 0000.0001) %MON dynstat_vvel_mean            =   4.4067644444409E-08
(PID.TID 0000.0001) %MON dynstat_vvel_sd              =   4.7565399462864E-02
(PID.TID 0000.0001) %MON dynstat_vvel_del2            =   1.3032472890363E-06
(PID.TID 0000.0001) %MON dynstat_wvel_max             =   4.3931595422328E-09
(PID.TID 0000.0001) %MON dynstat_wvel_min             =  -6.7728122707922E-09
(PID.TID 0000.0001) %MON dynstat_wvel_mean            =  -1.2517861467931E-20
(PID.TID 0000.0001) %MON dynstat_wvel_sd              =   2.5892397722400E-09
(PID.TID 0000.0001) %MON dynstat_wvel_del2            =   2.6072041236975E-14
(PID.TID 0000.0001) %MON dynstat_theta_max            =   2.0000000000000E+01
(PID.TID 0000.0001) %MON dynstat_theta_min            =   2.0000000000000E+01
(PID.TID 0000.0001) %MON dynstat_theta_mean           =   1.9999999999999E+01
(PID.TID 0000.0001) %MON dynstat_theta_sd             =   1.1972645097557E-12
(PID.TID 0000.0001) %MON dynstat_theta_del2           =   0.0000000000000E+00
(PID.TID 0000.0001) %MON dynstat_salt_max             =   3.0000000000000E+01
(PID.TID 0000.0001) %MON dynstat_salt_min             =   3.0000000000000E+01
(PID.TID 0000.0001) %MON dynstat_salt_mean            =   2.9999999999998E+01
(PID.TID 0000.0001) %MON dynstat_salt_sd              =   2.1529444893531E-12
(PID.TID 0000.0001) %MON dynstat_salt_del2            =   0.0000000000000E+00
(PID.TID 0000.0001) %MON trAdv_CFL_u_max              =   3.1427645483477E-02
(PID.TID 0000.0001) %MON trAdv_CFL_v_max              =   3.7221993547252E-02
(PID.TID 0000.0001) %MON trAdv_CFL_w_max              =   1.1048646133884E-09
(PID.TID 0000.0001) %MON advcfl_uvel_max              =   3.1427861550951E-02
(PID.TID 0000.0001) %MON advcfl_vvel_max              =   3.7223350462941E-02
(PID.TID 0000.0001) %MON advcfl_wvel_max              =   3.2509498899803E-09
(PID.TID 0000.0001) %MON advcfl_W_hf_max              =   0.0000000000000E+00
(PID.TID 0000.0001) %MON pe_b_mean                    =   1.4637524920505E-05
(PID.TID 0000.0001) %MON ke_max                       =   1.2044398602754E-02
(PID.TID 0000.0001) %MON ke_mean                      =   2.3745233421321E-03
(PID.TID 0000.0001) %MON ke_vol                       =   7.2529629296391E+15
(PID.TID 0000.0001) %MON vort_r_min                   =  -4.3088285737131E-06
(PID.TID 0000.0001) %MON vort_r_max                   =   3.5280449982263E-06
(PID.TID 0000.0001) %MON vort_a_mean                  =   1.0615000000000E-04
(PID.TID 0000.0001) %MON vort_a_sd                    =   3.6420115796906E-06
(PID.TID 0000.0001) %MON vort_p_mean                  =   1.1210870169429E-04
(PID.TID 0000.0001) %MON vort_p_sd                    =   2.1070352092189E-05
(PID.TID 0000.0001) %MON surfExpan_theta_mean         =  -2.5039742049999E-19
(PID.TID 0000.0001) %MON surfExpan_salt_mean          =  -3.7558709456633E-19
(PID.TID 0000.0001) // =======================================================
(PID.TID 0000.0001) // End MONITOR dynamic field statistics
(PID.TID 0000.0001) // =======================================================
 cg2d: Sum(rhs),rhsMax =   3.42254626103073E-03  1.31224612533657E-02
 cg2d: Sum(rhs),rhsMax =   3.42261224147277E-03  1.31226874664267E-02
 cg2d: Sum(rhs),rhsMax =   3.42267746694692E-03  1.31229137678500E-02
 cg2d: Sum(rhs),rhsMax =   3.42274212310488E-03  1.31231401622629E-02
 cg2d: Sum(rhs),rhsMax =   3.42280612597027E-03  1.31233666490142E-02
 cg2d: Sum(rhs),rhsMax =   3.42286952317477E-03  1.31235932220459E-02
 cg2d: Sum(rhs),rhsMax =   3.42293227377761E-03  1.31238198865039E-02
 cg2d: Sum(rhs),rhsMax =   3.42299439150829E-03  1.31240466380162E-02
 cg2d: Sum(rhs),rhsMax =   3.42305586251282E-03  1.31242734842226E-02
 cg2d: Sum(rhs),rhsMax =   3.42311670717134E-03  1.31245004151991E-02
 cg2d: Sum(rhs),rhsMax =   3.42317692203126E-03  1.31247274362825E-02
 cg2d: Sum(rhs),rhsMax =   3.42324974526994E-03  1.31249545600893E-02
 cg2d: Sum(rhs),rhsMax =   3.42332173750705E-03  1.31251817647521E-02
 cg2d: Sum(rhs),rhsMax =   3.42339296567998E-03  1.31254090637938E-02
 cg2d: Sum(rhs),rhsMax =   3.42346310437377E-03  1.31256364498729E-02
 cg2d: Sum(rhs),rhsMax =   3.42353253425486E-03  1.31258639336926E-02
 cg2d: Sum(rhs),rhsMax =   3.42361462527463E-03  1.31260914952258E-02
 cg2d: Sum(rhs),rhsMax =   3.42369549096312E-03  1.31263191588424E-02
 cg2d: Sum(rhs),rhsMax =   3.42377520908746E-03  1.31265469114266E-02
 cg2d: Sum(rhs),rhsMax =   3.42385365928606E-03  1.31267747555128E-02
 cg2d: Sum(rhs),rhsMax =   3.42394472822840E-03  1.31270026973045E-02
 cg2d: Sum(rhs),rhsMax =   3.42403413028403E-03  1.31272307309362E-02
 cg2d: Sum(rhs),rhsMax =   3.42412195678608E-03  1.31274588519800E-02
 cg2d: Sum(rhs),rhsMax =   3.42420799994226E-03  1.31276870654810E-02
 cg2d: Sum(rhs),rhsMax =   3.42430578124655E-03  1.31279153685009E-02
 cg2d: Sum(rhs),rhsMax =   3.42441515105531E-03  1.31281437688754E-02
 cg2d: Sum(rhs),rhsMax =   3.42452204003909E-03  1.31283722634630E-02
 cg2d: Sum(rhs),rhsMax =   3.42464026579352E-03  1.31286008491572E-02
 cg2d: Sum(rhs),rhsMax =   3.42475558966109E-03  1.31288295273332E-02
 cg2d: Sum(rhs),rhsMax =   3.42486799792644E-03  1.31290583009775E-02
 cg2d: Sum(rhs),rhsMax =   3.42497744023150E-03  1.31292871667325E-02
 cg2d: Sum(rhs),rhsMax =   3.42509648585600E-03  1.31295161311794E-02
 cg2d: Sum(rhs),rhsMax =   3.42522470528806E-03  1.31297451805770E-02
 cg2d: Sum(rhs),rhsMax =   3.42536194109152E-03  1.31299743221137E-02
 cg2d: Sum(rhs),rhsMax =   3.42549511372478E-03  1.31302035651129E-02
 cg2d: Sum(rhs),rhsMax =   3.42566100337011E-03  1.31304329041734E-02
 cg2d: Sum(rhs),rhsMax =   3.42582178702068E-03  1.31306623372332E-02
 cg2d: Sum(rhs),rhsMax =   3.42597755942822E-03  1.31308918575028E-02
 cg2d: Sum(rhs),rhsMax =   3.42615159582509E-03  1.31311214786244E-02
 cg2d: Sum(rhs),rhsMax =   3.42632009927171E-03  1.31313511868797E-02
 cg2d: Sum(rhs),rhsMax =   3.42648303733792E-03  1.31315810005271E-02
 cg2d: Sum(rhs),rhsMax =   3.42665180058696E-03  1.31318108981634E-02
 cg2d: Sum(rhs),rhsMax =   3.42681488303979E-03  1.31320408999359E-02
 cg2d: Sum(rhs),rhsMax =   3.42697242970235E-03  1.31322709880163E-02
 cg2d: Sum(rhs),rhsMax =   3.42712429328498E-03  1.31325011775303E-02
 cg2d: Sum(rhs),rhsMax =   3.42727086133938E-03  1.31327314618508E-02
 cg2d: Sum(rhs),rhsMax =   3.42742221565259E-03  1.31329618334204E-02
 cg2d: Sum(rhs),rhsMax =   3.42757843961494E-03  1.31331923110113E-02
 cg2d: Sum(rhs),rhsMax =   3.42772912158010E-03  1.31334228834181E-02
 cg2d: Sum(rhs),rhsMax =   3.42787447456063E-03  1.31336535518242E-02
 cg2d: Sum(rhs),rhsMax =   3.42801454164197E-03  1.31338843139645E-02
 cg2d: Sum(rhs),rhsMax =   3.42814951537219E-03  1.31341151708736E-02
 cg2d: Sum(rhs),rhsMax =   3.42827946605604E-03  1.31343461200522E-02
 cg2d: Sum(rhs),rhsMax =   3.42840460523803E-03  1.31345771740430E-02
 cg2d: Sum(rhs),rhsMax =   3.42852498077173E-03  1.31348083182677E-02
 cg2d: Sum(rhs),rhsMax =   3.42865041496062E-03  1.31350395507556E-02
 cg2d: Sum(rhs),rhsMax =   3.42877127830882E-03  1.31352708928710E-02
 cg2d: Sum(rhs),rhsMax =   3.42888780576433E-03  1.31355023261660E-02
 cg2d: Sum(rhs),rhsMax =   3.42900011357698E-03  1.31357338639247E-02
 cg2d: Sum(rhs),rhsMax =   3.42910828269840E-03  1.31359654926562E-02
 cg2d: Sum(rhs),rhsMax =   3.42921261082052E-03  1.31361972217407E-02
 cg2d: Sum(rhs),rhsMax =   3.42931318306260E-03  1.31364290443000E-02
 cg2d: Sum(rhs),rhsMax =   3.42941023454781E-03  1.31366609672921E-02
 cg2d: Sum(rhs),rhsMax =   3.42950387892224E-03  1.31368929841658E-02
 cg2d: Sum(rhs),rhsMax =   3.42959428597056E-03  1.31371251012149E-02
 cg2d: Sum(rhs),rhsMax =   3.42968162723053E-03  1.31373573137331E-02
 cg2d: Sum(rhs),rhsMax =   3.42976603644546E-03  1.31375896266209E-02
 cg2d: Sum(rhs),rhsMax =   3.42984774596990E-03  1.31378220325315E-02
 cg2d: Sum(rhs),rhsMax =   3.42992686663933E-03  1.31380545414773E-02
 cg2d: Sum(rhs),rhsMax =   3.43000363742721E-03  1.31382871443621E-02
 cg2d: Sum(rhs),rhsMax =   3.43007814657509E-03  1.31385198483429E-02
 cg2d: Sum(rhs),rhsMax =   3.43015059942791E-03  1.31387526443546E-02
(PID.TID 0000.0001)      cg2d_init_res =   1.55901236653799E-03
(PID.TID 0000.0001)      cg2d_iters(min,last) =      -1     317
(PID.TID 0000.0001)      cg2d_last_res =   9.62930205661764E-08
(PID.TID 0000.0001) // =======================================================
(PID.TID 0000.0001) // Begin MONITOR dynamic field statistics
(PID.TID 0000.0001) // =======================================================
(PID.TID 0000.0001) %MON time_tsnumber                =                 17784
(PID.TID 0000.0001) %MON time_secondsf                =   2.1340800000000E+07
(PID.TID 0000.0001) %MON dynstat_eta_max              =   1.3559677134937E-01
(PID.TID 0000.0001) %MON dynstat_eta_min              =  -3.4166891695023E-01
(PID.TID 0000.0001) %MON dynstat_eta_mean             =  -2.1447669251547E-07
(PID.TID 0000.0001) %MON dynstat_eta_sd               =   1.1974576249334E-01
(PID.TID 0000.0001) %MON dynstat_eta_del2             =   7.2645560108068E-07
(PID.TID 0000.0001) %MON dynstat_uvel_max             =   1.2939906706630E-01
(PID.TID 0000.0001) %MON dynstat_uvel_min             =  -1.3101424929570E-01
(PID.TID 0000.0001) %MON dynstat_uvel_mean            =   1.5566425928017E-08
(PID.TID 0000.0001) %MON dynstat_uvel_sd              =   5.0120008498000E-02
(PID.TID 0000.0001) %MON dynstat_uvel_del2            =   1.0899511763095E-06
(PID.TID 0000.0001) %MON dynstat_vvel_max             =   1.5550358626328E-01
(PID.TID 0000.0001) %MON dynstat_vvel_min             =  -1.2171035974405E-01
(PID.TID 0000.0001) %MON dynstat_vvel_mean            =   4.2309478140863E-08
(PID.TID 0000.0001) %MON dynstat_vvel_sd              =   4.7658895299526E-02
(PID.TID 0000.0001) %MON dynstat_vvel_del2            =   1.3020908133013E-06
(PID.TID 0000.0001) %MON dynstat_wvel_max             =   4.6138408966362E-09
(PID.TID 0000.0001) %MON dynstat_wvel_min             =  -6.7581917066127E-09
(PID.TID 0000.0001) %MON dynstat_wvel_mean            =  -7.6511305810169E-21
(PID.TID 0000.0001) %MON dynstat_wvel_sd              =   2.5736543828620E-09
(PID.TID 0000.0001) %MON dynstat_wvel_del2            =   2.5950638119120E-14
(PID.TID 0000.0001) %MON dynstat_theta_max            =   2.0000000000000E+01
(PID.TID 0000.0001) %MON dynstat_theta_min            =   2.0000000000000E+01
(PID.TID 0000.0001) %MON dynstat_theta_mean           =   1.9999999999999E+01
(PID.TID 0000.0001) %MON dynstat_theta_sd             =   1.1972645097557E-12
(PID.TID 0000.0001) %MON dynstat_theta_del2           =   0.0000000000000E+00
(PID.TID 0000.0001) %MON dynstat_salt_max             =   3.0000000000000E+01
(PID.TID 0000.0001) %MON dynstat_salt_min             =   3.0000000000000E+01
(PID.TID 0000.0001) %MON dynstat_salt_mean            =   2.9999999999998E+01
(PID.TID 0000.0001) %MON dynstat_salt_sd              =   2.1529444893531E-12
(PID.TID 0000.0001) %MON dynstat_salt_del2            =   0.0000000000000E+00
(PID.TID 0000.0001) %MON trAdv_CFL_u_max              =   3.1443203240225E-02
(PID.TID 0000.0001) %MON trAdv_CFL_v_max              =   3.7319510034258E-02
(PID.TID 0000.0001) %MON trAdv_CFL_w_max              =   1.1620111847776E-09
(PID.TID 0000.0001) %MON advcfl_uvel_max              =   3.1443419830968E-02
(PID.TID 0000.0001) %MON advcfl_vvel_max              =   3.7320860703188E-02
(PID.TID 0000.0001) %MON advcfl_wvel_max              =   3.2439320191741E-09
(PID.TID 0000.0001) %MON advcfl_W_hf_max              =   0.0000000000000E+00
(PID.TID 0000.0001) %MON pe_b_mean                    =   1.4670809719768E-05
(PID.TID 0000.0001) %MON ke_max                       =   1.2106583068355E-02
(PID.TID 0000.0001) %MON ke_mean                      =   2.3809268571113E-03
(PID.TID 0000.0001) %MON ke_vol                       =   7.2529629296391E+15
(PID.TID 0000.0001) %MON vort_r_min                   =  -4.3136056881116E-06
(PID.TID 0000.0001) %MON vort_r_max                   =   3.5265348351776E-06
(PID.TID 0000.0001) %MON vort_a_mean                  =   1.0615000000000E-04
(PID.TID 0000.0001) %MON vort_a_sd                    =   3.6421594985917E-06
(PID.TID 0000.0001) %MON vort_p_mean                  =   1.1210870169429E-04
(PID.TID 0000.0001) %MON vort_p_sd                    =   2.1070441758417E-05
(PID.TID 0000.0001) %MON surfExpan_theta_mean         =  -1.5305947181026E-19
(PID.TID 0000.0001) %MON surfExpan_salt_mean          =  -2.2958623948874E-19
(PID.TID 0000.0001) // =======================================================
(PID.TID 0000.0001) // End MONITOR dynamic field statistics
(PID.TID 0000.0001) // =======================================================
 cg2d: Sum(rhs),rhsMax =   3.43022115810146E-03  1.31389855466008E-02
 cg2d: Sum(rhs),rhsMax =   3.43028998409515E-03  1.31392185416929E-02
 cg2d: Sum(rhs),rhsMax =   3.43035725723134E-03  1.31394516378109E-02
 cg2d: Sum(rhs),rhsMax =   3.43042311836165E-03  1.31396848245088E-02
 cg2d: Sum(rhs),rhsMax =   3.43048775770942E-03  1.31399181191546E-02
 cg2d: Sum(rhs),rhsMax =   3.43055129775245E-03  1.31401515056679E-02
 cg2d: Sum(rhs),rhsMax =   3.43061391702303E-03  1.31403849974722E-02
 cg2d: Sum(rhs),rhsMax =   3.43067581529839E-03  1.31406185810948E-02
 cg2d: Sum(rhs),rhsMax =   3.43073708884048E-03  1.31408522713164E-02
 cg2d: Sum(rhs),rhsMax =   3.43079791443998E-03  1.31410860555342E-02
 cg2d: Sum(rhs),rhsMax =   3.43085845696407E-03  1.31413199435999E-02
 cg2d: Sum(rhs),rhsMax =   3.43091889316633E-03  1.31415539235118E-02
 cg2d: Sum(rhs),rhsMax =   3.43097933110161E-03  1.31417880077354E-02
 cg2d: Sum(rhs),rhsMax =   3.43103994163969E-03  1.31420221881533E-02
 cg2d: Sum(rhs),rhsMax =   3.43110089205247E-03  1.31422564691121E-02
 cg2d: Sum(rhs),rhsMax =   3.43116232405037E-03  1.31424908433313E-02
 cg2d: Sum(rhs),rhsMax =   3.43122437484183E-03  1.31427253261210E-02
 cg2d: Sum(rhs),rhsMax =   3.43128720988956E-03  1.31429599009661E-02
 cg2d: Sum(rhs),rhsMax =   3.43135096645913E-03  1.31431945809268E-02
 cg2d: Sum(rhs),rhsMax =   3.43141579448568E-03  1.31434293540995E-02
 cg2d: Sum(rhs),rhsMax =   3.43148183901404E-03  1.31436642341694E-02
 cg2d: Sum(rhs),rhsMax =   3.43154917563227E-03  1.31438992087004E-02
 cg2d: Sum(rhs),rhsMax =   3.43160921542865E-03  1.31441342917931E-02
 cg2d: Sum(rhs),rhsMax =   3.43167076989372E-03  1.31443694722608E-02
 cg2d: Sum(rhs),rhsMax =   3.43173402797504E-03  1.31446047494804E-02
 cg2d: Sum(rhs),rhsMax =   3.43179907832926E-03  1.31448401288987E-02
 cg2d: Sum(rhs),rhsMax =   3.43186612475914E-03  1.31450756014130E-02
 cg2d: Sum(rhs),rhsMax =   3.43193520861512E-03  1.31453111741021E-02
 cg2d: Sum(rhs),rhsMax =   3.43200651475573E-03  1.31455468536638E-02
 cg2d: Sum(rhs),rhsMax =   3.43208015359316E-03  1.31457826307962E-02
 cg2d: Sum(rhs),rhsMax =   3.43215624392330E-03  1.31460185070116E-02
 cg2d: Sum(rhs),rhsMax =   3.43223493771428E-03  1.31462544814591E-02
 cg2d: Sum(rhs),rhsMax =   3.43231630711647E-03  1.31464905596054E-02
 cg2d: Sum(rhs),rhsMax =   3.43240049716055E-03  1.31467267368047E-02
 cg2d: Sum(rhs),rhsMax =   3.43248763899421E-03  1.31469630161294E-02
 cg2d: Sum(rhs),rhsMax =   3.43257780828818E-03  1.31471993933115E-02
 cg2d: Sum(rhs),rhsMax =   3.43267118221673E-03  1.31474358736307E-02
 cg2d: Sum(rhs),rhsMax =   3.43275847010992E-03  1.31476724378541E-02
 cg2d: Sum(rhs),rhsMax =   3.43284898970345E-03  1.31479091253300E-02
 cg2d: Sum(rhs),rhsMax =   3.43294300044161E-03  1.31481459025599E-02
 cg2d: Sum(rhs),rhsMax =   3.43304051055263E-03  1.31483827875730E-02
 cg2d: Sum(rhs),rhsMax =   3.43313252220664E-03  1.31486197721539E-02
 cg2d: Sum(rhs),rhsMax =   3.43322808952197E-03  1.31488568575947E-02
 cg2d: Sum(rhs),rhsMax =   3.43332742160115E-03  1.31490940364897E-02
 cg2d: Sum(rhs),rhsMax =   3.43343048520324E-03  1.31493313219036E-02
 cg2d: Sum(rhs),rhsMax =   3.43353752916517E-03  1.31495687058818E-02
 cg2d: Sum(rhs),rhsMax =   3.43364855059278E-03  1.31498061926982E-02
 cg2d: Sum(rhs),rhsMax =   3.43376367421748E-03  1.31500437774542E-02
 cg2d: Sum(rhs),rhsMax =   3.43388299812808E-03  1.31502814672780E-02
 cg2d: Sum(rhs),rhsMax =   3.43400661786974E-03  1.31505192526932E-02
 cg2d: Sum(rhs),rhsMax =   3.43413458778474E-03  1.31507571468032E-02
 cg2d: Sum(rhs),rhsMax =   3.43426706130998E-03  1.31509951356377E-02
 cg2d: Sum(rhs),rhsMax =   3.43440406130181E-03  1.31512332299501E-02
 cg2d: Sum(rhs),rhsMax =   3.43453523113206E-03  1.31514714193242E-02
 cg2d: Sum(rhs),rhsMax =   3.43467094687010E-03  1.31517097122453E-02
 cg2d: Sum(rhs),rhsMax =   3.43481138861301E-03  1.31519481050579E-02
 cg2d: Sum(rhs),rhsMax =   3.43495656207999E-03  1.31521866039470E-02
 cg2d: Sum(rhs),rhsMax =   3.43510659930879E-03  1.31524251973754E-02
 cg2d: Sum(rhs),rhsMax =   3.43526153239369E-03  1.31526638997043E-02
 cg2d: Sum(rhs),rhsMax =   3.43542146758663E-03  1.31529026951749E-02
 cg2d: Sum(rhs),rhsMax =   3.43557555350111E-03  1.31531415971552E-02
 cg2d: Sum(rhs),rhsMax =   3.43573462279838E-03  1.31533806006769E-02
 cg2d: Sum(rhs),rhsMax =   3.43588791830157E-03  1.31536197046426E-02
 cg2d: Sum(rhs),rhsMax =   3.43604612196637E-03  1.31538589098231E-02
 cg2d: Sum(rhs),rhsMax =   3.43620935761032E-03  1.31540982146092E-02
 cg2d: Sum(rhs),rhsMax =   3.43637768072765E-03  1.31543376238843E-02
 cg2d: Sum(rhs),rhsMax =   3.43655114606599E-03  1.31545771309032E-02
 cg2d: Sum(rhs),rhsMax =   3.43672988021010E-03  1.31548167445605E-02
 cg2d: Sum(rhs),rhsMax =   3.43691388607116E-03  1.31550564524590E-02
 cg2d: Sum(rhs),rhsMax =   3.43709111513325E-03  1.31552962553319E-02
 cg2d: Sum(rhs),rhsMax =   3.43727355859201E-03  1.31555361714841E-02
 cg2d: Sum(rhs),rhsMax =   3.43743770632128E-03  1.31557761863882E-02
(PID.TID 0000.0001)      cg2d_init_res =   1.55407889801300E-03
(PID.TID 0000.0001)      cg2d_iters(min,last) =      -1     326
(PID.TID 0000.0001)      cg2d_last_res =   9.77611968187751E-08
(PID.TID 0000.0001) // =======================================================
(PID.TID 0000.0001) // Begin MONITOR dynamic field statistics
(PID.TID 0000.0001) // =======================================================
(PID.TID 0000.0001) %MON time_tsnumber                =                 17856
(PID.TID 0000.0001) %MON time_secondsf                =   2.1427200000000E+07
(PID.TID 0000.0001) %MON dynstat_eta_max              =   1.3573225461359E-01
(PID.TID 0000.0001) %MON dynstat_eta_min              =  -3.4222595423272E-01
(PID.TID 0000.0001) %MON dynstat_eta_mean             =  -2.1521708734361E-07
(PID.TID 0000.0001) %MON dynstat_eta_sd               =   1.1988002076356E-01
(PID.TID 0000.0001) %MON dynstat_eta_del2             =   7.2714583215352E-07
(PID.TID 0000.0001) %MON dynstat_uvel_max             =   1.2953446625702E-01
(PID.TID 0000.0001) %MON dynstat_uvel_min             =  -1.3107966104881E-01
(PID.TID 0000.0001) %MON dynstat_uvel_mean            =   3.0111177476147E-08
(PID.TID 0000.0001) %MON dynstat_uvel_sd              =   5.0159473328580E-02
(PID.TID 0000.0001) %MON dynstat_uvel_del2            =   1.0904159640518E-06
(PID.TID 0000.0001) %MON dynstat_vvel_max             =   1.5590699588034E-01
(PID.TID 0000.0001) %MON dynstat_vvel_min             =  -1.2198199354362E-01
(PID.TID 0000.0001) %MON dynstat_vvel_mean            =   3.8017098664389E-08
(PID.TID 0000.0001) %MON dynstat_vvel_sd              =   4.7750331343022E-02
(PID.TID 0000.0001) %MON dynstat_vvel_del2            =   1.3006339014230E-06
(PID.TID 0000.0001) %MON dynstat_wvel_max             =   4.7785036452115E-09
(PID.TID 0000.0001) %MON dynstat_wvel_min             =  -7.1315813995898E-09
(PID.TID 0000.0001) %MON dynstat_wvel_mean            =   1.2901414888299E-20
(PID.TID 0000.0001) %MON dynstat_wvel_sd              =   2.5564893060284E-09
(PID.TID 0000.0001) %MON dynstat_wvel_del2            =   2.5893764032244E-14
(PID.TID 0000.0001) %MON dynstat_theta_max            =   2.0000000000000E+01
(PID.TID 0000.0001) %MON dynstat_theta_min            =   2.0000000000000E+01
(PID.TID 0000.0001) %MON dynstat_theta_mean           =   1.9999999999999E+01
(PID.TID 0000.0001) %MON dynstat_theta_sd             =   1.1972645097557E-12
(PID.TID 0000.0001) %MON dynstat_theta_del2           =   0.0000000000000E+00
(PID.TID 0000.0001) %MON dynstat_salt_max             =   3.0000000000000E+01
(PID.TID 0000.0001) %MON dynstat_salt_min             =   3.0000000000000E+01
(PID.TID 0000.0001) %MON dynstat_salt_mean            =   2.9999999999998E+01
(PID.TID 0000.0001) %MON dynstat_salt_sd              =   2.1529444893531E-12
(PID.TID 0000.0001) %MON dynstat_salt_del2            =   0.0000000000000E+00
(PID.TID 0000.0001) %MON trAdv_CFL_u_max              =   3.1458898785544E-02
(PID.TID 0000.0001) %MON trAdv_CFL_v_max              =   3.7416341173431E-02
(PID.TID 0000.0001) %MON trAdv_CFL_w_max              =   1.2050856225276E-09
(PID.TID 0000.0001) %MON advcfl_uvel_max              =   3.1459118651714E-02
(PID.TID 0000.0001) %MON advcfl_vvel_max              =   3.7417679011281E-02
(PID.TID 0000.0001) %MON advcfl_wvel_max              =   3.4231590718031E-09
(PID.TID 0000.0001) %MON advcfl_W_hf_max              =   0.0000000000000E+00
(PID.TID 0000.0001) %MON pe_b_mean                    =   1.4703725819515E-05
(PID.TID 0000.0001) %MON ke_max                       =   1.2168615256142E-02
(PID.TID 0000.0001) %MON ke_mean                      =   2.3872389927881E-03
(PID.TID 0000.0001) %MON ke_vol                       =   7.2529629296391E+15
(PID.TID 0000.0001) %MON vort_r_min                   =  -4.3185938149927E-06
(PID.TID 0000.0001) %MON vort_r_max                   =   3.5233510388898E-06
(PID.TID 0000.0001) %MON vort_a_mean                  =   1.0615000000000E-04
(PID.TID 0000.0001) %MON vort_a_sd                    =   3.6423011664565E-06
(PID.TID 0000.0001) %MON vort_p_mean                  =   1.1210870169429E-04
(PID.TID 0000.0001) %MON vort_p_sd                    =   2.1070526260467E-05
(PID.TID 0000.0001) %MON surfExpan_theta_mean         =   2.5795153852322E-19
(PID.TID 0000.0001) %MON surfExpan_salt_mean          =   3.8692754261289E-19
(PID.TID 0000.0001) // =======================================================
(PID.TID 0000.0001) // End MONITOR dynamic field statistics
(PID.TID 0000.0001) // =======================================================
 cg2d: Sum(rhs),rhsMax =   3.43760679611622E-03  1.31560163045683E-02
 cg2d: Sum(rhs),rhsMax =   3.43778083938495E-03  1.31562565197929E-02
 cg2d: Sum(rhs),rhsMax =   3.43795991896221E-03  1.31564968400839E-02
 cg2d: Sum(rhs),rhsMax =   3.43814410064324E-03  1.31567372585721E-02
 cg2d: Sum(rhs),rhsMax =   3.43832077653667E-03  1.31569777885474E-02
 cg2d: Sum(rhs),rhsMax =   3.43850236409021E-03  1.31572184104649E-02
 cg2d: Sum(rhs),rhsMax =   3.43867664496924E-03  1.31574591313167E-02
 cg2d: Sum(rhs),rhsMax =   3.43885572970508E-03  1.31576999528895E-02
 cg2d: Sum(rhs),rhsMax =   3.43902711545465E-03  1.31579408837280E-02
 cg2d: Sum(rhs),rhsMax =   3.43920310249977E-03  1.31581819103803E-02
 cg2d: Sum(rhs),rhsMax =   3.43938383589620E-03  1.31584230421792E-02
 cg2d: Sum(rhs),rhsMax =   3.43956930486822E-03  1.31586642711402E-02
 cg2d: Sum(rhs),rhsMax =   3.43975948573784E-03  1.31589056057846E-02
 cg2d: Sum(rhs),rhsMax =   3.43995453847198E-03  1.31591470381975E-02
 cg2d: Sum(rhs),rhsMax =   3.44015436344628E-03  1.31593885741083E-02
 cg2d: Sum(rhs),rhsMax =   3.44034517646240E-03  1.31596302125350E-02
 cg2d: Sum(rhs),rhsMax =   3.44054065496354E-03  1.31598719484763E-02
 cg2d: Sum(rhs),rhsMax =   3.44074080563550E-03  1.31601137884036E-02
 cg2d: Sum(rhs),rhsMax =   3.44094561061795E-03  1.31603557268585E-02
 cg2d: Sum(rhs),rhsMax =   3.44114121937350E-03  1.31605977640646E-02
 cg2d: Sum(rhs),rhsMax =   3.44132767876662E-03  1.31608399146318E-02
 cg2d: Sum(rhs),rhsMax =   3.44151840125063E-03  1.31610821562605E-02
 cg2d: Sum(rhs),rhsMax =   3.44171350251318E-03  1.31613245026968E-02
 cg2d: Sum(rhs),rhsMax =   3.44191293297472E-03  1.31615669446438E-02
 cg2d: Sum(rhs),rhsMax =   3.44211676691312E-03  1.31618094937075E-02
 cg2d: Sum(rhs),rhsMax =   3.44232489368239E-03  1.31620521393076E-02
 cg2d: Sum(rhs),rhsMax =   3.44253745587186E-03  1.31622948910925E-02
 cg2d: Sum(rhs),rhsMax =   3.44273963402615E-03  1.31625377339080E-02
 cg2d: Sum(rhs),rhsMax =   3.44294596249133E-03  1.31627806820900E-02
 cg2d: Sum(rhs),rhsMax =   3.44315650090648E-03  1.31630237353886E-02
 cg2d: Sum(rhs),rhsMax =   3.44337121376902E-03  1.31632668851393E-02
 cg2d: Sum(rhs),rhsMax =   3.44359015862786E-03  1.31635101386904E-02
 cg2d: Sum(rhs),rhsMax =   3.44379857219133E-03  1.31637535039024E-02
 cg2d: Sum(rhs),rhsMax =   3.44401097675497E-03  1.31639969586257E-02
 cg2d: Sum(rhs),rhsMax =   3.44422751703728E-03  1.31642405149602E-02
 cg2d: Sum(rhs),rhsMax =   3.44443378639665E-03  1.31644841680116E-02
 cg2d: Sum(rhs),rhsMax =   3.44464386526602E-03  1.31647279203555E-02
 cg2d: Sum(rhs),rhsMax =   3.44485785706269E-03  1.31649717818080E-02
 cg2d: Sum(rhs),rhsMax =   3.44507561929550E-03  1.31652157343365E-02
 cg2d: Sum(rhs),rhsMax =   3.44529730011832E-03  1.31654597982179E-02
 cg2d: Sum(rhs),rhsMax =   3.44552273853505E-03  1.31657039564408E-02
 cg2d: Sum(rhs),rhsMax =   3.44575212396130E-03  1.31659482230336E-02
 cg2d: Sum(rhs),rhsMax =   3.44598523703069E-03  1.31661925751266E-02
 cg2d: Sum(rhs),rhsMax =   3.44622237424800E-03  1.31664370414272E-02
 cg2d: Sum(rhs),rhsMax =   3.44646332585510E-03  1.31666815956745E-02
 cg2d: Sum(rhs),rhsMax =   3.44669257914459E-03  1.31669262707295E-02
 cg2d: Sum(rhs),rhsMax =   3.44692545819111E-03  1.31671710276649E-02
 cg2d: Sum(rhs),rhsMax =   3.44716200296213E-03  1.31674158953019E-02
 cg2d: Sum(rhs),rhsMax =   3.44740222138532E-03  1.31676608519260E-02
 cg2d: Sum(rhs),rhsMax =   3.44764613556976E-03  1.31679059202057E-02
 cg2d: Sum(rhs),rhsMax =   3.44789363345119E-03  1.31681510782752E-02
 cg2d: Sum(rhs),rhsMax =   3.44814492550015E-03  1.31683963480094E-02
 cg2d: Sum(rhs),rhsMax =   3.44839976241746E-03  1.31686417062292E-02
 cg2d: Sum(rhs),rhsMax =   3.44865844208579E-03  1.31688871730098E-02
 cg2d: Sum(rhs),rhsMax =   3.44892082927445E-03  1.31691327297029E-02
 cg2d: Sum(rhs),rhsMax =   3.44917077742714E-03  1.31693783882359E-02
 cg2d: Sum(rhs),rhsMax =   3.44942419133131E-03  1.31696241456541E-02
 cg2d: Sum(rhs),rhsMax =   3.44968116741175E-03  1.31698700108584E-02
 cg2d: Sum(rhs),rhsMax =   3.44994144444338E-03  1.31701159712902E-02
 cg2d: Sum(rhs),rhsMax =   3.45020538033927E-03  1.31703620341286E-02
 cg2d: Sum(rhs),rhsMax =   3.45047281260250E-03  1.31706081901529E-02
 cg2d: Sum(rhs),rhsMax =   3.45074377396111E-03  1.31708544512530E-02
 cg2d: Sum(rhs),rhsMax =   3.45100220789784E-03  1.31711008180328E-02
 cg2d: Sum(rhs),rhsMax =   3.45126398859866E-03  1.31713472705711E-02
 cg2d: Sum(rhs),rhsMax =   3.45152915265691E-03  1.31715938302610E-02
 cg2d: Sum(rhs),rhsMax =   3.45179759250802E-03  1.31718404812202E-02
 cg2d: Sum(rhs),rhsMax =   3.45206939712954E-03  1.31720872415288E-02
 cg2d: Sum(rhs),rhsMax =   3.45234439292774E-03  1.31723340947346E-02
 cg2d: Sum(rhs),rhsMax =   3.45262282170627E-03  1.31725810496222E-02
 cg2d: Sum(rhs),rhsMax =   3.45290458267535E-03  1.31728280970156E-02
 cg2d: Sum(rhs),rhsMax =   3.45318971057031E-03  1.31730752502006E-02
 cg2d: Sum(rhs),rhsMax =   3.45347818190703E-03  1.31733224957072E-02
(PID.TID 0000.0001)      cg2d_init_res =   1.54846700762470E-03
(PID.TID 0000.0001)      cg2d_iters(min,last) =      -1     338
(PID.TID 0000.0001)      cg2d_last_res =   9.82740883825416E-08
(PID.TID 0000.0001) // =======================================================
(PID.TID 0000.0001) // Begin MONITOR dynamic field statistics
(PID.TID 0000.0001) // =======================================================
(PID.TID 0000.0001) %MON time_tsnumber                =                 17928
(PID.TID 0000.0001) %MON time_secondsf                =   2.1513600000000E+07
(PID.TID 0000.0001) %MON dynstat_eta_max              =   1.3582552715948E-01
(PID.TID 0000.0001) %MON dynstat_eta_min              =  -3.4276712722436E-01
(PID.TID 0000.0001) %MON dynstat_eta_mean             =  -2.1651751554235E-07
(PID.TID 0000.0001) %MON dynstat_eta_sd               =   1.2001297549609E-01
(PID.TID 0000.0001) %MON dynstat_eta_del2             =   7.2780988339027E-07
(PID.TID 0000.0001) %MON dynstat_uvel_max             =   1.2966972104791E-01
(PID.TID 0000.0001) %MON dynstat_uvel_min             =  -1.3114641849771E-01
(PID.TID 0000.0001) %MON dynstat_uvel_mean            =   4.3349220421680E-08
(PID.TID 0000.0001) %MON dynstat_uvel_sd              =   5.0199742611188E-02
(PID.TID 0000.0001) %MON dynstat_uvel_del2            =   1.0909848215873E-06
(PID.TID 0000.0001) %MON dynstat_vvel_max             =   1.5630560617614E-01
(PID.TID 0000.0001) %MON dynstat_vvel_min             =  -1.2225333108157E-01
(PID.TID 0000.0001) %MON dynstat_vvel_mean            =   3.1386160372655E-08
(PID.TID 0000.0001) %MON dynstat_vvel_sd              =   4.7838911396193E-02
(PID.TID 0000.0001) %MON dynstat_vvel_del2            =   1.2989292654895E-06
(PID.TID 0000.0001) %MON dynstat_wvel_max             =   4.8772071301937E-09
(PID.TID 0000.0001) %MON dynstat_wvel_min             =  -7.4136115610600E-09
(PID.TID 0000.0001) %MON dynstat_wvel_mean            =  -1.0851852880068E-21
(PID.TID 0000.0001) %MON dynstat_wvel_sd              =   2.5378574691408E-09
(PID.TID 0000.0001) %MON dynstat_wvel_del2            =   2.5775568173522E-14
(PID.TID 0000.0001) %MON dynstat_theta_max            =   2.0000000000000E+01
(PID.TID 0000.0001) %MON dynstat_theta_min            =   2.0000000000000E+01
(PID.TID 0000.0001) %MON dynstat_theta_mean           =   1.9999999999999E+01
(PID.TID 0000.0001) %MON dynstat_theta_sd             =   1.1972645097557E-12
(PID.TID 0000.0001) %MON dynstat_theta_del2           =   0.0000000000000E+00
(PID.TID 0000.0001) %MON dynstat_salt_max             =   3.0000000000000E+01
(PID.TID 0000.0001) %MON dynstat_salt_min             =   3.0000000000000E+01
(PID.TID 0000.0001) %MON dynstat_salt_mean            =   2.9999999999998E+01
(PID.TID 0000.0001) %MON dynstat_salt_sd              =   2.1529444893531E-12
(PID.TID 0000.0001) %MON dynstat_salt_del2            =   0.0000000000000E+00
(PID.TID 0000.0001) %MON trAdv_CFL_u_max              =   3.1474914990129E-02
(PID.TID 0000.0001) %MON trAdv_CFL_v_max              =   3.7512026632302E-02
(PID.TID 0000.0001) %MON trAdv_CFL_w_max              =   1.2320336956287E-09
(PID.TID 0000.0001) %MON advcfl_uvel_max              =   3.1475140439449E-02
(PID.TID 0000.0001) %MON advcfl_vvel_max              =   3.7513345482273E-02
(PID.TID 0000.0001) %MON advcfl_wvel_max              =   3.5585335493088E-09
(PID.TID 0000.0001) %MON advcfl_W_hf_max              =   0.0000000000000E+00
(PID.TID 0000.0001) %MON pe_b_mean                    =   1.4736358680160E-05
(PID.TID 0000.0001) %MON ke_max                       =   1.2230179498078E-02
(PID.TID 0000.0001) %MON ke_mean                      =   2.3934651865094E-03
(PID.TID 0000.0001) %MON ke_vol                       =   7.2529629296391E+15
(PID.TID 0000.0001) %MON vort_r_min                   =  -4.3240187762927E-06
(PID.TID 0000.0001) %MON vort_r_max                   =   3.5186985647871E-06
(PID.TID 0000.0001) %MON vort_a_mean                  =   1.0615000000000E-04
(PID.TID 0000.0001) %MON vort_a_sd                    =   3.6424377352421E-06
(PID.TID 0000.0001) %MON vort_p_mean                  =   1.1210870169429E-04
(PID.TID 0000.0001) %MON vort_p_sd                    =   2.1070604805637E-05
(PID.TID 0000.0001) %MON surfExpan_theta_mean         =  -2.1724723209416E-20
(PID.TID 0000.0001) %MON surfExpan_salt_mean          =  -3.2586878165433E-20
(PID.TID 0000.0001) // =======================================================
(PID.TID 0000.0001) // End MONITOR dynamic field statistics
(PID.TID 0000.0001) // =======================================================
 cg2d: Sum(rhs),rhsMax =   3.45376996755246E-03  1.31735698467510E-02
 cg2d: Sum(rhs),rhsMax =   3.45406505056996E-03  1.31738172903466E-02
 cg2d: Sum(rhs),rhsMax =   3.45436348187824E-03  1.31740648416854E-02
 cg2d: Sum(rhs),rhsMax =   3.45466528870799E-03  1.31743124797357E-02
 cg2d: Sum(rhs),rhsMax =   3.45497037568213E-03  1.31745602221618E-02
 cg2d: Sum(rhs),rhsMax =   3.45526115348709E-03  1.31748080694841E-02
 cg2d: Sum(rhs),rhsMax =   3.45555512318274E-03  1.31750560026628E-02
 cg2d: Sum(rhs),rhsMax =   3.45585225014726E-03  1.31753040396778E-02
 cg2d: Sum(rhs),rhsMax =   3.45615253601783E-03  1.31755521687760E-02
 cg2d: Sum(rhs),rhsMax =   3.45645596071525E-03  1.31758004035233E-02
 cg2d: Sum(rhs),rhsMax =   3.45676259020169E-03  1.31760487298052E-02
 cg2d: Sum(rhs),rhsMax =   3.45707232619668E-03  1.31762971597172E-02
 cg2d: Sum(rhs),rhsMax =   3.45738529474061E-03  1.31765456803702E-02
 cg2d: Sum(rhs),rhsMax =   3.45770141535398E-03  1.31767943047844E-02
 cg2d: Sum(rhs),rhsMax =   3.45802069026548E-03  1.31770430214197E-02
 cg2d: Sum(rhs),rhsMax =   3.45834314255815E-03  1.31772918403700E-02
 cg2d: Sum(rhs),rhsMax =   3.45866874110674E-03  1.31775407515135E-02
 cg2d: Sum(rhs),rhsMax =   3.45899752527469E-03  1.31777897646128E-02
 cg2d: Sum(rhs),rhsMax =   3.45932946518449E-03  1.31780388698307E-02
 cg2d: Sum(rhs),rhsMax =   3.45966452696279E-03  1.31782880770468E-02
 cg2d: Sum(rhs),rhsMax =   3.46000276271606E-03  1.31785373754827E-02
 cg2d: Sum(rhs),rhsMax =   3.46034413527559E-03  1.31787867759353E-02
 cg2d: Sum(rhs),rhsMax =   3.46066988221054E-03  1.31790362676669E-02
 cg2d: Sum(rhs),rhsMax =   3.46099859461434E-03  1.31792858579362E-02
 cg2d: Sum(rhs),rhsMax =   3.46133031212184E-03  1.31795355439552E-02
 cg2d: Sum(rhs),rhsMax =   3.46166497627891E-03  1.31797853282085E-02
 cg2d: Sum(rhs),rhsMax =   3.46200272307718E-03  1.31800352059267E-02
 cg2d: Sum(rhs),rhsMax =   3.46234340286093E-03  1.31802851778233E-02
 cg2d: Sum(rhs),rhsMax =   3.46268714284681E-03  1.31805352525571E-02
 cg2d: Sum(rhs),rhsMax =   3.46303386982774E-03  1.31807854215227E-02
 cg2d: Sum(rhs),rhsMax =   3.46338359093228E-03  1.31810356846143E-02
 cg2d: Sum(rhs),rhsMax =   3.46371809208517E-03  1.31812860473644E-02
 cg2d: Sum(rhs),rhsMax =   3.46405537316172E-03  1.31815365008461E-02
 cg2d: Sum(rhs),rhsMax =   3.46439557145922E-03  1.31817870517069E-02
 cg2d: Sum(rhs),rhsMax =   3.46473861012491E-03  1.31820376922935E-02
 cg2d: Sum(rhs),rhsMax =   3.46508454116099E-03  1.31822884354320E-02
 cg2d: Sum(rhs),rhsMax =   3.46543330024193E-03  1.31825392665797E-02
 cg2d: Sum(rhs),rhsMax =   3.46578490633174E-03  1.31827901998215E-02
 cg2d: Sum(rhs),rhsMax =   3.46613931419375E-03  1.31830412220686E-02
 cg2d: Sum(rhs),rhsMax =   3.46649662747374E-03  1.31832923467725E-02
 cg2d: Sum(rhs),rhsMax =   3.46685677202373E-03  1.31835435547904E-02
 cg2d: Sum(rhs),rhsMax =   3.46721980348171E-03  1.31837948655568E-02
 cg2d: Sum(rhs),rhsMax =   3.46758571077727E-03  1.31840462611826E-02
 cg2d: Sum(rhs),rhsMax =   3.46795447322764E-03  1.31842977587745E-02
 cg2d: Sum(rhs),rhsMax =   3.46830694899073E-03  1.31845493485711E-02
 cg2d: Sum(rhs),rhsMax =   3.46866210006369E-03  1.31848010271620E-02
 cg2d: Sum(rhs),rhsMax =   3.46902000106720E-03  1.31850528072355E-02
 cg2d: Sum(rhs),rhsMax =   3.46938046588301E-03  1.31853046714520E-02
 cg2d: Sum(rhs),rhsMax =   3.46974380564785E-03  1.31855566404884E-02
 cg2d: Sum(rhs),rhsMax =   3.47010979624473E-03  1.31858086938422E-02
 cg2d: Sum(rhs),rhsMax =   3.47047852877197E-03  1.31860608503114E-02
 cg2d: Sum(rhs),rhsMax =   3.47084993803011E-03  1.31863130894690E-02
 cg2d: Sum(rhs),rhsMax =   3.47122410653332E-03  1.31865654326034E-02
 cg2d: Sum(rhs),rhsMax =   3.47160099982476E-03  1.31868178576992E-02
 cg2d: Sum(rhs),rhsMax =   3.47198055216013E-03  1.31870703843356E-02
 cg2d: Sum(rhs),rhsMax =   3.47236287217865E-03  1.31873229948053E-02
 cg2d: Sum(rhs),rhsMax =   3.47274784389023E-03  1.31875757088898E-02
 cg2d: Sum(rhs),rhsMax =   3.47313560593488E-03  1.31878285029615E-02
 cg2d: Sum(rhs),rhsMax =   3.47352603843958E-03  1.31880813980627E-02
 cg2d: Sum(rhs),rhsMax =   3.47391919069828E-03  1.31883343780538E-02
 cg2d: Sum(rhs),rhsMax =   3.47431505898197E-03  1.31885874605416E-02
 cg2d: Sum(rhs),rhsMax =   3.47471367389796E-03  1.31888406216700E-02
 cg2d: Sum(rhs),rhsMax =   3.47511500203761E-03  1.31890938845807E-02
 cg2d: Sum(rhs),rhsMax =   3.47551905022310E-03  1.31893472297301E-02
 cg2d: Sum(rhs),rhsMax =   3.47590468644082E-03  1.31896006848433E-02
 cg2d: Sum(rhs),rhsMax =   3.47629293058716E-03  1.31898542145317E-02
 cg2d: Sum(rhs),rhsMax =   3.47668383434909E-03  1.31901078412759E-02
 cg2d: Sum(rhs),rhsMax =   3.47707728554687E-03  1.31903615507594E-02
 cg2d: Sum(rhs),rhsMax =   3.47747340245940E-03  1.31906153592849E-02
 cg2d: Sum(rhs),rhsMax =   3.47787198580447E-03  1.31908692496533E-02
 cg2d: Sum(rhs),rhsMax =   3.47827317714268E-03  1.31911232379369E-02
 cg2d: Sum(rhs),rhsMax =   3.47867695365011E-03  1.31913773108268E-02
(PID.TID 0000.0001)      cg2d_init_res =   1.54167040335189E-03
(PID.TID 0000.0001)      cg2d_iters(min,last) =      -1     343
(PID.TID 0000.0001)      cg2d_last_res =   9.98013568675820E-08
(PID.TID 0000.0001) // =======================================================
(PID.TID 0000.0001) // Begin MONITOR dynamic field statistics
(PID.TID 0000.0001) // =======================================================
(PID.TID 0000.0001) %MON time_tsnumber                =                 18000
(PID.TID 0000.0001) %MON time_secondsf                =   2.1600000000000E+07
(PID.TID 0000.0001) %MON dynstat_eta_max              =   1.3587823453324E-01
(PID.TID 0000.0001) %MON dynstat_eta_min              =  -3.4329407058466E-01
(PID.TID 0000.0001) %MON dynstat_eta_mean             =  -2.1840343320973E-07
(PID.TID 0000.0001) %MON dynstat_eta_sd               =   1.2014500096312E-01
(PID.TID 0000.0001) %MON dynstat_eta_del2             =   7.2845215374639E-07
(PID.TID 0000.0001) %MON dynstat_uvel_max             =   1.2980787563525E-01
(PID.TID 0000.0001) %MON dynstat_uvel_min             =  -1.3121513684344E-01
(PID.TID 0000.0001) %MON dynstat_uvel_mean            =   5.4773610716575E-08
(PID.TID 0000.0001) %MON dynstat_uvel_sd              =   5.0241625409107E-02
(PID.TID 0000.0001) %MON dynstat_uvel_del2            =   1.0916691753838E-06
(PID.TID 0000.0001) %MON dynstat_vvel_max             =   1.5669766431466E-01
(PID.TID 0000.0001) %MON dynstat_vvel_min             =  -1.2252096284317E-01
(PID.TID 0000.0001) %MON dynstat_vvel_mean            =   2.2702699713864E-08
(PID.TID 0000.0001) %MON dynstat_vvel_sd              =   4.7923953369103E-02
(PID.TID 0000.0001) %MON dynstat_vvel_del2            =   1.2970388820572E-06
(PID.TID 0000.0001) %MON dynstat_wvel_max             =   4.9107732437551E-09
(PID.TID 0000.0001) %MON dynstat_wvel_min             =  -7.5937692634761E-09
(PID.TID 0000.0001) %MON dynstat_wvel_mean            =  -3.2498182894316E-21
(PID.TID 0000.0001) %MON dynstat_wvel_sd              =   2.5178596106003E-09
(PID.TID 0000.0001) %MON dynstat_wvel_del2            =   2.5892254092004E-14
(PID.TID 0000.0001) %MON dynstat_theta_max            =   2.0000000000000E+01
(PID.TID 0000.0001) %MON dynstat_theta_min            =   2.0000000000000E+01
(PID.TID 0000.0001) %MON dynstat_theta_mean           =   1.9999999999999E+01
(PID.TID 0000.0001) %MON dynstat_theta_sd             =   1.1972645097557E-12
(PID.TID 0000.0001) %MON dynstat_theta_del2           =   0.0000000000000E+00
(PID.TID 0000.0001) %MON dynstat_salt_max             =   3.0000000000000E+01
(PID.TID 0000.0001) %MON dynstat_salt_min             =   3.0000000000000E+01
(PID.TID 0000.0001) %MON dynstat_salt_mean            =   2.9999999999998E+01
(PID.TID 0000.0001) %MON dynstat_salt_sd              =   2.1529444893531E-12
(PID.TID 0000.0001) %MON dynstat_salt_del2            =   0.0000000000000E+00
(PID.TID 0000.0001) %MON trAdv_CFL_u_max              =   3.1491400019965E-02
(PID.TID 0000.0001) %MON trAdv_CFL_v_max              =   3.7606145076016E-02
(PID.TID 0000.0001) %MON trAdv_CFL_w_max              =   1.2420002610705E-09
(PID.TID 0000.0001) %MON advcfl_uvel_max              =   3.1491632842425E-02
(PID.TID 0000.0001) %MON advcfl_vvel_max              =   3.7607439435519E-02
(PID.TID 0000.0001) %MON advcfl_wvel_max              =   3.6450092464685E-09
(PID.TID 0000.0001) %MON advcfl_W_hf_max              =   0.0000000000000E+00
(PID.TID 0000.0001) %MON pe_b_mean                    =   1.4768799252286E-05
(PID.TID 0000.0001) %MON ke_max                       =   1.2290979581842E-02
(PID.TID 0000.0001) %MON ke_mean                      =   2.3996127033055E-03
(PID.TID 0000.0001) %MON ke_vol                       =   7.2529629296391E+15
(PID.TID 0000.0001) %MON vort_r_min                   =  -4.3296087350619E-06
(PID.TID 0000.0001) %MON vort_r_max                   =   3.5129104418856E-06
(PID.TID 0000.0001) %MON vort_a_mean                  =   1.0615000000000E-04
(PID.TID 0000.0001) %MON vort_a_sd                    =   3.6425704735082E-06
(PID.TID 0000.0001) %MON vort_p_mean                  =   1.1210870169429E-04
(PID.TID 0000.0001) %MON vort_p_sd                    =   2.1070676830230E-05
(PID.TID 0000.0001) %MON surfExpan_theta_mean         =  -6.5046686172503E-20
(PID.TID 0000.0001) %MON surfExpan_salt_mean          =  -9.7573861652649E-20
(PID.TID 0000.0001) // =======================================================
(PID.TID 0000.0001) // End MONITOR dynamic field statistics
(PID.TID 0000.0001) // =======================================================
 cg2d: Sum(rhs),rhsMax =   3.47908310700557E-03  1.31916314804767E-02
 cg2d: Sum(rhs),rhsMax =   3.47947106988367E-03  1.31918857277670E-02
 cg2d: Sum(rhs),rhsMax =   3.47986146273896E-03  1.31921400736233E-02
 cg2d: Sum(rhs),rhsMax =   3.48025431714122E-03  1.31923945069114E-02
 cg2d: Sum(rhs),rhsMax =   3.48062837036795E-03  1.31926490357504E-02
 cg2d: Sum(rhs),rhsMax =   3.48100475736618E-03  1.31929036480066E-02
 cg2d: Sum(rhs),rhsMax =   3.48138352042229E-03  1.31931583519887E-02
 cg2d: Sum(rhs),rhsMax =   3.48176447636093E-03  1.31934131412949E-02
 cg2d: Sum(rhs),rhsMax =   3.48214782568278E-03  1.31936680206106E-02
 cg2d: Sum(rhs),rhsMax =   3.48253337284440E-03  1.31939229872424E-02
 cg2d: Sum(rhs),rhsMax =   3.48292121919811E-03  1.31941780439033E-02
 cg2d: Sum(rhs),rhsMax =   3.48331142119334E-03  1.31944331862195E-02
 cg2d: Sum(rhs),rhsMax =   3.48370391528492E-03  1.31946884199413E-02
 cg2d: Sum(rhs),rhsMax =   3.48409870114226E-03  1.31949437396655E-02
 cg2d: Sum(rhs),rhsMax =   3.48437166711261E-03  1.31951991451789E-02
 cg2d: Sum(rhs),rhsMax =   3.48464600604036E-03  1.31954546375928E-02
 cg2d: Sum(rhs),rhsMax =   3.48489928602230E-03  1.31957102140243E-02
 cg2d: Sum(rhs),rhsMax =   3.48515392488311E-03  1.31959658830993E-02
 cg2d: Sum(rhs),rhsMax =   3.48541004564753E-03  1.31962216423605E-02
 cg2d: Sum(rhs),rhsMax =   3.48566752935591E-03  1.31964774863623E-02
 cg2d: Sum(rhs),rhsMax =   3.48592642695728E-03  1.31967334156022E-02
 cg2d: Sum(rhs),rhsMax =   3.48618680023795E-03  1.31969894321975E-02
 cg2d: Sum(rhs),rhsMax =   3.48644849995727E-03  1.31972455379507E-02
 cg2d: Sum(rhs),rhsMax =   3.48671161477837E-03  1.31975017234897E-02
 cg2d: Sum(rhs),rhsMax =   3.48697621458456E-03  1.31977579970075E-02
 cg2d: Sum(rhs),rhsMax =   3.48724220430562E-03  1.31980143584689E-02
 cg2d: Sum(rhs),rhsMax =   3.48750962155792E-03  1.31982708052209E-02
 cg2d: Sum(rhs),rhsMax =   3.48777845145013E-03  1.31985273346066E-02
 cg2d: Sum(rhs),rhsMax =   3.48804870900057E-03  1.31987839507137E-02
 cg2d: Sum(rhs),rhsMax =   3.48832028082723E-03  1.31990406494452E-02
 cg2d: Sum(rhs),rhsMax =   3.48859329267815E-03  1.31992974376648E-02
 cg2d: Sum(rhs),rhsMax =   3.48886772418009E-03  1.31995543105568E-02
 cg2d: Sum(rhs),rhsMax =   3.48914355533524E-03  1.31998112636521E-02
 cg2d: Sum(rhs),rhsMax =   3.48942078950678E-03  1.32000683043320E-02
 cg2d: Sum(rhs),rhsMax =   3.48969940212947E-03  1.32003254298056E-02
 cg2d: Sum(rhs),rhsMax =   3.48997949282804E-03  1.32005826360617E-02
 cg2d: Sum(rhs),rhsMax =   3.49026097708599E-03  1.32008399256034E-02
 cg2d: Sum(rhs),rhsMax =   3.49054378780185E-03  1.32010973002899E-02
 cg2d: Sum(rhs),rhsMax =   3.49082804999532E-03  1.32013547563465E-02
 cg2d: Sum(rhs),rhsMax =   3.49111365472461E-03  1.32016122935479E-02
 cg2d: Sum(rhs),rhsMax =   3.49140070146515E-03  1.32018699145250E-02
 cg2d: Sum(rhs),rhsMax =   3.49168917045935E-03  1.32021276202692E-02
 cg2d: Sum(rhs),rhsMax =   3.49197895326499E-03  1.32023854098124E-02
 cg2d: Sum(rhs),rhsMax =   3.49224784458282E-03  1.32026432919050E-02
 cg2d: Sum(rhs),rhsMax =   3.49251791773432E-03  1.32029012397311E-02
 cg2d: Sum(rhs),rhsMax =   3.49278935573113E-03  1.32031592767498E-02
 cg2d: Sum(rhs),rhsMax =   3.49306196983129E-03  1.32034173865378E-02
 cg2d: Sum(rhs),rhsMax =   3.49333591044665E-03  1.32036755870522E-02
 cg2d: Sum(rhs),rhsMax =   3.49361105764702E-03  1.32039338611262E-02
 cg2d: Sum(rhs),rhsMax =   3.49388750684951E-03  1.32041922238576E-02
 cg2d: Sum(rhs),rhsMax =   3.49416511188428E-03  1.32044506606593E-02
 cg2d: Sum(rhs),rhsMax =   3.49444407919317E-03  1.32047091840797E-02
 cg2d: Sum(rhs),rhsMax =   3.49472426280967E-03  1.32049677833049E-02
 cg2d: Sum(rhs),rhsMax =   3.49500580614864E-03  1.32052264682210E-02
 cg2d: Sum(rhs),rhsMax =   3.49528857326222E-03  1.32054852250601E-02
 cg2d: Sum(rhs),rhsMax =   3.49557255839703E-03  1.32057440685098E-02
 cg2d: Sum(rhs),rhsMax =   3.49585782686505E-03  1.32060029848052E-02
 cg2d: Sum(rhs),rhsMax =   3.49614432396219E-03  1.32062619841792E-02
 cg2d: Sum(rhs),rhsMax =   3.49643209052521E-03  1.32065210594541E-02
 cg2d: Sum(rhs),rhsMax =   3.49672109088734E-03  1.32067802202033E-02
 cg2d: Sum(rhs),rhsMax =   3.49701140821886E-03  1.32070394536968E-02
 cg2d: Sum(rhs),rhsMax =   3.49730285820202E-03  1.32072987708293E-02
 cg2d: Sum(rhs),rhsMax =   3.49759556256068E-03  1.32075581590897E-02
 cg2d: Sum(rhs),rhsMax =   3.49788953903610E-03  1.32078176306138E-02
 cg2d: Sum(rhs),rhsMax =   3.49818476684814E-03  1.32080771769099E-02
 cg2d: Sum(rhs),rhsMax =   3.49848123083052E-03  1.32083368051685E-02
 cg2d: Sum(rhs),rhsMax =   3.49877897832993E-03  1.32085965039780E-02
 cg2d: Sum(rhs),rhsMax =   3.49907786981637E-03  1.32088562841843E-02
 cg2d: Sum(rhs),rhsMax =   3.49937801475887E-03  1.32091161395228E-02
 cg2d: Sum(rhs),rhsMax =   3.49967938374429E-03  1.32093760789108E-02
 cg2d: Sum(rhs),rhsMax =   3.49998199841656E-03  1.32096360844724E-02
 cg2d: Sum(rhs),rhsMax =   3.50028589083079E-03  1.32098961724552E-02
(PID.TID 0000.0001)      cg2d_init_res =   1.53326320116628E-03
(PID.TID 0000.0001)      cg2d_iters(min,last) =      -1     352
(PID.TID 0000.0001)      cg2d_last_res =   9.54794194066879E-08
(PID.TID 0000.0001) // =======================================================
(PID.TID 0000.0001) // Begin MONITOR dynamic field statistics
(PID.TID 0000.0001) // =======================================================
(PID.TID 0000.0001) %MON time_tsnumber                =                 18072
(PID.TID 0000.0001) %MON time_secondsf                =   2.1686400000000E+07
(PID.TID 0000.0001) %MON dynstat_eta_max              =   1.3589346612100E-01
(PID.TID 0000.0001) %MON dynstat_eta_min              =  -3.4380882271079E-01
(PID.TID 0000.0001) %MON dynstat_eta_mean             =  -2.2006221177521E-07
(PID.TID 0000.0001) %MON dynstat_eta_sd               =   1.2027647775620E-01
(PID.TID 0000.0001) %MON dynstat_eta_del2             =   7.2907750502808E-07
(PID.TID 0000.0001) %MON dynstat_uvel_max             =   1.2995161150234E-01
(PID.TID 0000.0001) %MON dynstat_uvel_min             =  -1.3128626711411E-01
(PID.TID 0000.0001) %MON dynstat_uvel_mean            =   6.3957310151726E-08
(PID.TID 0000.0001) %MON dynstat_uvel_sd              =   5.0285828061190E-02
(PID.TID 0000.0001) %MON dynstat_uvel_del2            =   1.0924761724397E-06
(PID.TID 0000.0001) %MON dynstat_vvel_max             =   1.5708164414016E-01
(PID.TID 0000.0001) %MON dynstat_vvel_min             =  -1.2278145431104E-01
(PID.TID 0000.0001) %MON dynstat_vvel_mean            =   1.2328330230349E-08
(PID.TID 0000.0001) %MON dynstat_vvel_sd              =   4.8004916452912E-02
(PID.TID 0000.0001) %MON dynstat_vvel_del2            =   1.2950318781966E-06
(PID.TID 0000.0001) %MON dynstat_wvel_max             =   4.8798707872629E-09
(PID.TID 0000.0001) %MON dynstat_wvel_min             =  -7.6698444131762E-09
(PID.TID 0000.0001) %MON dynstat_wvel_mean            =  -1.5626079103847E-21
(PID.TID 0000.0001) %MON dynstat_wvel_sd              =   2.4966141506289E-09
(PID.TID 0000.0001) %MON dynstat_wvel_del2            =   2.5656761186113E-14
(PID.TID 0000.0001) %MON dynstat_theta_max            =   2.0000000000000E+01
(PID.TID 0000.0001) %MON dynstat_theta_min            =   2.0000000000000E+01
(PID.TID 0000.0001) %MON dynstat_theta_mean           =   1.9999999999999E+01
(PID.TID 0000.0001) %MON dynstat_theta_sd             =   1.1972645097557E-12
(PID.TID 0000.0001) %MON dynstat_theta_del2           =   0.0000000000000E+00
(PID.TID 0000.0001) %MON dynstat_salt_max             =   3.0000000000000E+01
(PID.TID 0000.0001) %MON dynstat_salt_min             =   3.0000000000000E+01
(PID.TID 0000.0001) %MON dynstat_salt_mean            =   2.9999999999998E+01
(PID.TID 0000.0001) %MON dynstat_salt_sd              =   2.1529444893531E-12
(PID.TID 0000.0001) %MON dynstat_salt_del2            =   0.0000000000000E+00
(PID.TID 0000.0001) %MON trAdv_CFL_u_max              =   3.1508462694046E-02
(PID.TID 0000.0001) %MON trAdv_CFL_v_max              =   3.7698329378902E-02
(PID.TID 0000.0001) %MON trAdv_CFL_w_max              =   1.2360572098413E-09
(PID.TID 0000.0001) %MON advcfl_uvel_max              =   3.1508704107386E-02
(PID.TID 0000.0001) %MON advcfl_vvel_max              =   3.7699594593639E-02
(PID.TID 0000.0001) %MON advcfl_wvel_max              =   3.6815253183246E-09
(PID.TID 0000.0001) %MON advcfl_W_hf_max              =   0.0000000000000E+00
(PID.TID 0000.0001) %MON pe_b_mean                    =   1.4801140453265E-05
(PID.TID 0000.0001) %MON ke_max                       =   1.2350750088486E-02
(PID.TID 0000.0001) %MON ke_mean                      =   2.4056903603425E-03
(PID.TID 0000.0001) %MON ke_vol                       =   7.2529629296391E+15
(PID.TID 0000.0001) %MON vort_r_min                   =  -4.3353596431529E-06
(PID.TID 0000.0001) %MON vort_r_max                   =   3.5060884898129E-06
(PID.TID 0000.0001) %MON vort_a_mean                  =   1.0615000000000E-04
(PID.TID 0000.0001) %MON vort_a_sd                    =   3.6427007208484E-06
(PID.TID 0000.0001) %MON vort_p_mean                  =   1.1210870169429E-04
(PID.TID 0000.0001) %MON vort_p_sd                    =   2.1070742022193E-05
(PID.TID 0000.0001) %MON surfExpan_theta_mean         =  -3.1273240619808E-20
(PID.TID 0000.0001) %MON surfExpan_salt_mean          =  -4.6913636964874E-20
(PID.TID 0000.0001) // =======================================================
(PID.TID 0000.0001) // End MONITOR dynamic field statistics
(PID.TID 0000.0001) // =======================================================
 cg2d: Sum(rhs),rhsMax =   3.50059096384102E-03  1.32101563294336E-02
 cg2d: Sum(rhs),rhsMax =   3.50089731218679E-03  1.32104165704527E-02
 cg2d: Sum(rhs),rhsMax =   3.50120487875702E-03  1.32106768795575E-02
 cg2d: Sum(rhs),rhsMax =   3.50151362068468E-03  1.32109372695518E-02
 cg2d: Sum(rhs),rhsMax =   3.50182361681235E-03  1.32111977290352E-02
 cg2d: Sum(rhs),rhsMax =   3.50213470822474E-03  1.32114582665083E-02
 cg2d: Sum(rhs),rhsMax =   3.50244703980318E-03  1.32117188774743E-02
 cg2d: Sum(rhs),rhsMax =   3.50276065462796E-03  1.32119795696205E-02
 cg2d: Sum(rhs),rhsMax =   3.50307539994749E-03  1.32122403254558E-02
 cg2d: Sum(rhs),rhsMax =   3.50339141902699E-03  1.32125011621042E-02
 cg2d: Sum(rhs),rhsMax =   3.50370864367207E-03  1.32127620664606E-02
 cg2d: Sum(rhs),rhsMax =   3.50402706478713E-03  1.32130230499279E-02
 cg2d: Sum(rhs),rhsMax =   3.50434669024858E-03  1.32132841005008E-02
 cg2d: Sum(rhs),rhsMax =   3.50466750827744E-03  1.32135452304353E-02
 cg2d: Sum(rhs),rhsMax =   3.50498945122963E-03  1.32138064280296E-02
 cg2d: Sum(rhs),rhsMax =   3.50531265059160E-03  1.32140677027538E-02
 cg2d: Sum(rhs),rhsMax =   3.50563703962906E-03  1.32143290432251E-02
 cg2d: Sum(rhs),rhsMax =   3.50596259108998E-03  1.32145904626138E-02
 cg2d: Sum(rhs),rhsMax =   3.50628940381722E-03  1.32148519470352E-02
 cg2d: Sum(rhs),rhsMax =   3.50661718047808E-03  1.32151135108800E-02
 cg2d: Sum(rhs),rhsMax =   3.50694628534163E-03  1.32153751341281E-02
 cg2d: Sum(rhs),rhsMax =   3.50727656387706E-03  1.32156368381512E-02
 cg2d: Sum(rhs),rhsMax =   3.50760803320505E-03  1.32158986054471E-02
 cg2d: Sum(rhs),rhsMax =   3.50794067982766E-03  1.32161604491734E-02
 cg2d: Sum(rhs),rhsMax =   3.50827450801717E-03  1.32164223593375E-02
 cg2d: Sum(rhs),rhsMax =   3.50860950720082E-03  1.32166843484815E-02
 cg2d: Sum(rhs),rhsMax =   3.50894563870906E-03  1.32169463938255E-02
 cg2d: Sum(rhs),rhsMax =   3.50928298787104E-03  1.32172085167355E-02
 cg2d: Sum(rhs),rhsMax =   3.50962141778401E-03  1.32174707052749E-02
 cg2d: Sum(rhs),rhsMax =   3.50996112246553E-03  1.32177329677707E-02
 cg2d: Sum(rhs),rhsMax =   3.51030195962305E-03  1.32179952907096E-02
 cg2d: Sum(rhs),rhsMax =   3.51064392297842E-03  1.32182576907926E-02
 cg2d: Sum(rhs),rhsMax =   3.51098709265304E-03  1.32185201489519E-02
 cg2d: Sum(rhs),rhsMax =   3.51133118177353E-03  1.32187826818456E-02
 cg2d: Sum(rhs),rhsMax =   3.51167659852468E-03  1.32190452777045E-02
 cg2d: Sum(rhs),rhsMax =   3.51199745957186E-03  1.32193079453112E-02
 cg2d: Sum(rhs),rhsMax =   3.51231938165730E-03  1.32195706762626E-02
 cg2d: Sum(rhs),rhsMax =   3.51264247507911E-03  1.32198334785817E-02
 cg2d: Sum(rhs),rhsMax =   3.51296653814445E-03  1.32200963422763E-02
 cg2d: Sum(rhs),rhsMax =   3.51329172565688E-03  1.32203592783509E-02
 cg2d: Sum(rhs),rhsMax =   3.51361780426982E-03  1.32206222761071E-02
 cg2d: Sum(rhs),rhsMax =   3.51394502871341E-03  1.32208853397687E-02
 cg2d: Sum(rhs),rhsMax =   3.51427325990700E-03  1.32211484654200E-02
 cg2d: Sum(rhs),rhsMax =   3.51460254146443E-03  1.32214116627127E-02
 cg2d: Sum(rhs),rhsMax =   3.51493289218597E-03  1.32216749206911E-02
 cg2d: Sum(rhs),rhsMax =   3.51526417445178E-03  1.32219382478316E-02
 cg2d: Sum(rhs),rhsMax =   3.51559654819978E-03  1.32222016338883E-02
 cg2d: Sum(rhs),rhsMax =   3.51592994351272E-03  1.32224650873257E-02
 cg2d: Sum(rhs),rhsMax =   3.51626433168029E-03  1.32227286037068E-02
 cg2d: Sum(rhs),rhsMax =   3.51659979626029E-03  1.32229921870700E-02
 cg2d: Sum(rhs),rhsMax =   3.51693632353631E-03  1.32232558278826E-02
 cg2d: Sum(rhs),rhsMax =   3.51727385757919E-03  1.32235195359764E-02
 cg2d: Sum(rhs),rhsMax =   3.51761233099566E-03  1.32237833024410E-02
 cg2d: Sum(rhs),rhsMax =   3.51795186851356E-03  1.32240471331558E-02
 cg2d: Sum(rhs),rhsMax =   3.51829234919623E-03  1.32243110231869E-02
 cg2d: Sum(rhs),rhsMax =   3.51863388423696E-03  1.32245749812599E-02
 cg2d: Sum(rhs),rhsMax =   3.51897642752705E-03  1.32248389951894E-02
 cg2d: Sum(rhs),rhsMax =   3.51931993277874E-03  1.32251030753455E-02
 cg2d: Sum(rhs),rhsMax =   3.51966443876719E-03  1.32253672127400E-02
 cg2d: Sum(rhs),rhsMax =   3.52000991691023E-03  1.32256314144154E-02
 cg2d: Sum(rhs),rhsMax =   3.52035639869290E-03  1.32258956731488E-02
 cg2d: Sum(rhs),rhsMax =   3.52070388241119E-03  1.32261599961177E-02
 cg2d: Sum(rhs),rhsMax =   3.52105240805705E-03  1.32264243743168E-02
 cg2d: Sum(rhs),rhsMax =   3.52140190749885E-03  1.32266888166656E-02
 cg2d: Sum(rhs),rhsMax =   3.52175232410828E-03  1.32269533129236E-02
 cg2d: Sum(rhs),rhsMax =   3.52210377188435E-03  1.32272178724394E-02
 cg2d: Sum(rhs),rhsMax =   3.52245615356136E-03  1.32274824864577E-02
 cg2d: Sum(rhs),rhsMax =   3.52280957478078E-03  1.32277471644689E-02
 cg2d: Sum(rhs),rhsMax =   3.52316390964792E-03  1.32280118960585E-02
 cg2d: Sum(rhs),rhsMax =   3.52351927762915E-03  1.32282766890263E-02
 cg2d: Sum(rhs),rhsMax =   3.52387532014837E-03  1.32285415333333E-02
 cg2d: Sum(rhs),rhsMax =   3.52423254561640E-03  1.32288064423415E-02
(PID.TID 0000.0001)      cg2d_init_res =   1.52292293852574E-03
(PID.TID 0000.0001)      cg2d_iters(min,last) =      -1     353
(PID.TID 0000.0001)      cg2d_last_res =   9.51969987253270E-08
(PID.TID 0000.0001) // =======================================================
(PID.TID 0000.0001) // Begin MONITOR dynamic field statistics
(PID.TID 0000.0001) // =======================================================
(PID.TID 0000.0001) %MON time_tsnumber                =                 18144
(PID.TID 0000.0001) %MON time_secondsf                =   2.1772800000000E+07
(PID.TID 0000.0001) %MON dynstat_eta_max              =   1.3587565340611E-01
(PID.TID 0000.0001) %MON dynstat_eta_min              =  -3.4431374401943E-01
(PID.TID 0000.0001) %MON dynstat_eta_mean             =  -2.2188819634503E-07
(PID.TID 0000.0001) %MON dynstat_eta_sd               =   1.2040777806895E-01
(PID.TID 0000.0001) %MON dynstat_eta_del2             =   7.2969109888921E-07
(PID.TID 0000.0001) %MON dynstat_uvel_max             =   1.3010313127179E-01
(PID.TID 0000.0001) %MON dynstat_uvel_min             =  -1.3136008322489E-01
(PID.TID 0000.0001) %MON dynstat_uvel_mean            =   7.0567968228193E-08
(PID.TID 0000.0001) %MON dynstat_uvel_sd              =   5.0332926506031E-02
(PID.TID 0000.0001) %MON dynstat_uvel_del2            =   1.0934084733735E-06
(PID.TID 0000.0001) %MON dynstat_vvel_max             =   1.5745629855026E-01
(PID.TID 0000.0001) %MON dynstat_vvel_min             =  -1.2303148691917E-01
(PID.TID 0000.0001) %MON dynstat_vvel_mean            =   6.8675332050891E-10
(PID.TID 0000.0001) %MON dynstat_vvel_sd              =   4.8081421590258E-02
(PID.TID 0000.0001) %MON dynstat_vvel_del2            =   1.2929821960177E-06
(PID.TID 0000.0001) %MON dynstat_wvel_max             =   4.7947984188795E-09
(PID.TID 0000.0001) %MON dynstat_wvel_min             =  -7.6278123073280E-09
(PID.TID 0000.0001) %MON dynstat_wvel_mean            =   1.8748426257554E-21
(PID.TID 0000.0001) %MON dynstat_wvel_sd              =   2.4742935439079E-09
(PID.TID 0000.0001) %MON dynstat_wvel_del2            =   2.5414795240906E-14
(PID.TID 0000.0001) %MON dynstat_theta_max            =   2.0000000000000E+01
(PID.TID 0000.0001) %MON dynstat_theta_min            =   2.0000000000000E+01
(PID.TID 0000.0001) %MON dynstat_theta_mean           =   1.9999999999999E+01
(PID.TID 0000.0001) %MON dynstat_theta_sd             =   1.1972645097557E-12
(PID.TID 0000.0001) %MON dynstat_theta_del2           =   0.0000000000000E+00
(PID.TID 0000.0001) %MON dynstat_salt_max             =   3.0000000000000E+01
(PID.TID 0000.0001) %MON dynstat_salt_min             =   3.0000000000000E+01
(PID.TID 0000.0001) %MON dynstat_salt_mean            =   2.9999999999998E+01
(PID.TID 0000.0001) %MON dynstat_salt_sd              =   2.1529444893531E-12
(PID.TID 0000.0001) %MON dynstat_salt_del2            =   0.0000000000000E+00
(PID.TID 0000.0001) %MON trAdv_CFL_u_max              =   3.1526169356920E-02
(PID.TID 0000.0001) %MON trAdv_CFL_v_max              =   3.7788279233719E-02
(PID.TID 0000.0001) %MON trAdv_CFL_w_max              =   1.2169295129631E-09
(PID.TID 0000.0001) %MON advcfl_uvel_max              =   3.1526419973975E-02
(PID.TID 0000.0001) %MON advcfl_vvel_max              =   3.7789511652063E-02
(PID.TID 0000.0001) %MON advcfl_wvel_max              =   3.6613499075174E-09
(PID.TID 0000.0001) %MON advcfl_W_hf_max              =   0.0000000000000E+00
(PID.TID 0000.0001) %MON pe_b_mean                    =   1.4833473543893E-05
(PID.TID 0000.0001) %MON ke_max                       =   1.2409266040499E-02
(PID.TID 0000.0001) %MON ke_mean                      =   2.4117081919807E-03
(PID.TID 0000.0001) %MON ke_vol                       =   7.2529629296391E+15
(PID.TID 0000.0001) %MON vort_r_min                   =  -4.3412578161528E-06
(PID.TID 0000.0001) %MON vort_r_max                   =   3.4985346752141E-06
(PID.TID 0000.0001) %MON vort_a_mean                  =   1.0615000000000E-04
(PID.TID 0000.0001) %MON vort_a_sd                    =   3.6428298416255E-06
(PID.TID 0000.0001) %MON vort_p_mean                  =   1.1210870169429E-04
(PID.TID 0000.0001) %MON vort_p_sd                    =   2.1070800333375E-05
(PID.TID 0000.0001) %MON surfExpan_theta_mean         =   3.7436955805488E-20
(PID.TID 0000.0001) %MON surfExpan_salt_mean          =   5.6159857868831E-20
(PID.TID 0000.0001) // =======================================================
(PID.TID 0000.0001) // End MONITOR dynamic field statistics
(PID.TID 0000.0001) // =======================================================
 cg2d: Sum(rhs),rhsMax =   3.52459070868088E-03  1.32290714042196E-02
 cg2d: Sum(rhs),rhsMax =   3.52494991910179E-03  1.32293364265409E-02
 cg2d: Sum(rhs),rhsMax =   3.52530996041522E-03  1.32296015010835E-02
 cg2d: Sum(rhs),rhsMax =   3.52567106903130E-03  1.32298666351435E-02
 cg2d: Sum(rhs),rhsMax =   3.52603298760949E-03  1.32301318209557E-02
 cg2d: Sum(rhs),rhsMax =   3.52639600570808E-03  1.32303970666470E-02
 cg2d: Sum(rhs),rhsMax =   3.52675978992263E-03  1.32306623646055E-02
 cg2d: Sum(rhs),rhsMax =   3.52712463974049E-03  1.32309277188507E-02
 cg2d: Sum(rhs),rhsMax =   3.52749026578676E-03  1.32311931254602E-02
 cg2d: Sum(rhs),rhsMax =   3.52785698496656E-03  1.32314585882558E-02
 cg2d: Sum(rhs),rhsMax =   3.52822449901288E-03  1.32317240993286E-02
 cg2d: Sum(rhs),rhsMax =   3.52859308489775E-03  1.32319896726522E-02
 cg2d: Sum(rhs),rhsMax =   3.52896255999973E-03  1.32322552963274E-02
 cg2d: Sum(rhs),rhsMax =   3.52933295497880E-03  1.32325209744748E-02
 cg2d: Sum(rhs),rhsMax =   3.52970424400390E-03  1.32327867025696E-02
 cg2d: Sum(rhs),rhsMax =   3.53007636081560E-03  1.32330524852825E-02
 cg2d: Sum(rhs),rhsMax =   3.53044951328062E-03  1.32333183186028E-02
 cg2d: Sum(rhs),rhsMax =   3.53082355347261E-03  1.32335842077104E-02
 cg2d: Sum(rhs),rhsMax =   3.53119852112228E-03  1.32338501404914E-02
 cg2d: Sum(rhs),rhsMax =   3.53157444084706E-03  1.32341161312897E-02
 cg2d: Sum(rhs),rhsMax =   3.53195112164633E-03  1.32343821666023E-02
 cg2d: Sum(rhs),rhsMax =   3.53232879491151E-03  1.32346482602083E-02
 cg2d: Sum(rhs),rhsMax =   3.53270733719893E-03  1.32349144000994E-02
 cg2d: Sum(rhs),rhsMax =   3.53308677519213E-03  1.32351805930886E-02
 cg2d: Sum(rhs),rhsMax =   3.53346712009080E-03  1.32354468323047E-02
 cg2d: Sum(rhs),rhsMax =   3.53384817234584E-03  1.32357131236610E-02
 cg2d: Sum(rhs),rhsMax =   3.53423024046167E-03  1.32359794601021E-02
 cg2d: Sum(rhs),rhsMax =   3.53461314337632E-03  1.32362458495973E-02
 cg2d: Sum(rhs),rhsMax =   3.53499706353305E-03  1.32365122835727E-02
 cg2d: Sum(rhs),rhsMax =   3.53538177855004E-03  1.32367787709806E-02
 cg2d: Sum(rhs),rhsMax =   3.53576741868338E-03  1.32370452998340E-02
 cg2d: Sum(rhs),rhsMax =   3.53615383501478E-03  1.32373118809974E-02
 cg2d: Sum(rhs),rhsMax =   3.53654116339784E-03  1.32375785052950E-02
 cg2d: Sum(rhs),rhsMax =   3.53692932070725E-03  1.32378451811701E-02
 cg2d: Sum(rhs),rhsMax =   3.53731836756483E-03  1.32381118997695E-02
 cg2d: Sum(rhs),rhsMax =   3.53770821212764E-03  1.32383786696169E-02
 cg2d: Sum(rhs),rhsMax =   3.53809889395816E-03  1.32386454777203E-02
 cg2d: Sum(rhs),rhsMax =   3.53849051050923E-03  1.32389123383304E-02
 cg2d: Sum(rhs),rhsMax =   3.53888292722436E-03  1.32391792384469E-02
 cg2d: Sum(rhs),rhsMax =   3.53927626694918E-03  1.32394461908781E-02
 cg2d: Sum(rhs),rhsMax =   3.53967039660285E-03  1.32397131803636E-02
 cg2d: Sum(rhs),rhsMax =   3.54006539681691E-03  1.32399802179319E-02
 cg2d: Sum(rhs),rhsMax =   3.54046115626124E-03  1.32402472956881E-02
 cg2d: Sum(rhs),rhsMax =   3.54085772879944E-03  1.32405144248791E-02
 cg2d: Sum(rhs),rhsMax =   3.54125517942957E-03  1.32407815887309E-02
 cg2d: Sum(rhs),rhsMax =   3.54165342749550E-03  1.32410488016976E-02
 cg2d: Sum(rhs),rhsMax =   3.54205249963601E-03  1.32413160528228E-02
 cg2d: Sum(rhs),rhsMax =   3.54245231199780E-03  1.32415833521138E-02
 cg2d: Sum(rhs),rhsMax =   3.54285298050097E-03  1.32418506865109E-02
 cg2d: Sum(rhs),rhsMax =   3.54325445271547E-03  1.32421180699121E-02
 cg2d: Sum(rhs),rhsMax =   3.54365675290085E-03  1.32423854887970E-02
 cg2d: Sum(rhs),rhsMax =   3.54405992376178E-03  1.32426529548085E-02
 cg2d: Sum(rhs),rhsMax =   3.54446380916516E-03  1.32429204543194E-02
 cg2d: Sum(rhs),rhsMax =   3.54486854942743E-03  1.32431879990770E-02
 cg2d: Sum(rhs),rhsMax =   3.54527395281508E-03  1.32434555794138E-02
 cg2d: Sum(rhs),rhsMax =   3.54568021435842E-03  1.32437232051333E-02
 cg2d: Sum(rhs),rhsMax =   3.54608725900906E-03  1.32439908639307E-02
 cg2d: Sum(rhs),rhsMax =   3.54649504497693E-03  1.32442585667421E-02
 cg2d: Sum(rhs),rhsMax =   3.54690364365640E-03  1.32445263056625E-02
 cg2d: Sum(rhs),rhsMax =   3.54731281401006E-03  1.32447940887776E-02
 cg2d: Sum(rhs),rhsMax =   3.54772286264179E-03  1.32450618995269E-02
 cg2d: Sum(rhs),rhsMax =   3.54813375940599E-03  1.32453297551788E-02
 cg2d: Sum(rhs),rhsMax =   3.54854548249608E-03  1.32455976425992E-02
 cg2d: Sum(rhs),rhsMax =   3.54895796936307E-03  1.32458655737107E-02
 cg2d: Sum(rhs),rhsMax =   3.54937113623758E-03  1.32461335352785E-02
 cg2d: Sum(rhs),rhsMax =   3.54978511224758E-03  1.32464015398581E-02
 cg2d: Sum(rhs),rhsMax =   3.55019952694917E-03  1.32466695729996E-02
 cg2d: Sum(rhs),rhsMax =   3.55061491417633E-03  1.32469376494766E-02
 cg2d: Sum(rhs),rhsMax =   3.55103108474208E-03  1.32472057552089E-02
 cg2d: Sum(rhs),rhsMax =   3.55144805858488E-03  1.32474739008499E-02
 cg2d: Sum(rhs),rhsMax =   3.55186559313713E-03  1.32477420768291E-02
 cg2d: Sum(rhs),rhsMax =   3.55228397125874E-03  1.32480102895829E-02
(PID.TID 0000.0001)      cg2d_init_res =   1.51045113405558E-03
(PID.TID 0000.0001)      cg2d_iters(min,last) =      -1     353
(PID.TID 0000.0001)      cg2d_last_res =   9.67815477812132E-08
(PID.TID 0000.0001) // =======================================================
(PID.TID 0000.0001) // Begin MONITOR dynamic field statistics
(PID.TID 0000.0001) // =======================================================
(PID.TID 0000.0001) %MON time_tsnumber                =                 18216
(PID.TID 0000.0001) %MON time_secondsf                =   2.1859200000000E+07
(PID.TID 0000.0001) %MON dynstat_eta_max              =   1.3583041681526E-01
(PID.TID 0000.0001) %MON dynstat_eta_min              =  -3.4481142036280E-01
(PID.TID 0000.0001) %MON dynstat_eta_mean             =  -2.2398271832229E-07
(PID.TID 0000.0001) %MON dynstat_eta_sd               =   1.2053925128850E-01
(PID.TID 0000.0001) %MON dynstat_eta_del2             =   7.3029822128293E-07
(PID.TID 0000.0001) %MON dynstat_uvel_max             =   1.3026406906449E-01
(PID.TID 0000.0001) %MON dynstat_uvel_min             =  -1.3143667536468E-01
(PID.TID 0000.0001) %MON dynstat_uvel_mean            =   7.4382604652069E-08
(PID.TID 0000.0001) %MON dynstat_uvel_sd              =   5.0383344628520E-02
(PID.TID 0000.0001) %MON dynstat_uvel_del2            =   1.0944640853829E-06
(PID.TID 0000.0001) %MON dynstat_vvel_max             =   1.5782069896680E-01
(PID.TID 0000.0001) %MON dynstat_vvel_min             =  -1.2326799608789E-01
(PID.TID 0000.0001) %MON dynstat_vvel_mean            =  -1.1753901994051E-08
(PID.TID 0000.0001) %MON dynstat_vvel_sd              =   4.8153264788801E-02
(PID.TID 0000.0001) %MON dynstat_vvel_del2            =   1.2909661087481E-06
(PID.TID 0000.0001) %MON dynstat_wvel_max             =   4.6800970006734E-09
(PID.TID 0000.0001) %MON dynstat_wvel_min             =  -7.4787193536758E-09
(PID.TID 0000.0001) %MON dynstat_wvel_mean            =   9.0370970656989E-21
(PID.TID 0000.0001) %MON dynstat_wvel_sd              =   2.4511551186083E-09
(PID.TID 0000.0001) %MON dynstat_wvel_del2            =   2.5367571359038E-14
(PID.TID 0000.0001) %MON dynstat_theta_max            =   2.0000000000000E+01
(PID.TID 0000.0001) %MON dynstat_theta_min            =   2.0000000000000E+01
(PID.TID 0000.0001) %MON dynstat_theta_mean           =   1.9999999999999E+01
(PID.TID 0000.0001) %MON dynstat_theta_sd             =   1.1972645097557E-12
(PID.TID 0000.0001) %MON dynstat_theta_del2           =   0.0000000000000E+00
(PID.TID 0000.0001) %MON dynstat_salt_max             =   3.0000000000000E+01
(PID.TID 0000.0001) %MON dynstat_salt_min             =   3.0000000000000E+01
(PID.TID 0000.0001) %MON dynstat_salt_mean            =   2.9999999999998E+01
(PID.TID 0000.0001) %MON dynstat_salt_sd              =   2.1529444893531E-12
(PID.TID 0000.0001) %MON dynstat_salt_del2            =   0.0000000000000E+00
(PID.TID 0000.0001) %MON trAdv_CFL_u_max              =   3.1544542269484E-02
(PID.TID 0000.0001) %MON trAdv_CFL_v_max              =   3.7875770670185E-02
(PID.TID 0000.0001) %MON trAdv_CFL_w_max              =   1.1898984282701E-09
(PID.TID 0000.0001) %MON advcfl_uvel_max              =   3.1544802087524E-02
(PID.TID 0000.0001) %MON advcfl_vvel_max              =   3.7876967752033E-02
(PID.TID 0000.0001) %MON advcfl_wvel_max              =   3.5897852897644E-09
(PID.TID 0000.0001) %MON advcfl_W_hf_max              =   0.0000000000000E+00
(PID.TID 0000.0001) %MON pe_b_mean                    =   1.4865884560344E-05
(PID.TID 0000.0001) %MON ke_max                       =   1.2466350483060E-02
(PID.TID 0000.0001) %MON ke_mean                      =   2.4176770687916E-03
(PID.TID 0000.0001) %MON ke_vol                       =   7.2529629296391E+15
(PID.TID 0000.0001) %MON vort_r_min                   =  -4.3472805516233E-06
(PID.TID 0000.0001) %MON vort_r_max                   =   3.4905776762721E-06
(PID.TID 0000.0001) %MON vort_a_mean                  =   1.0615000000000E-04
(PID.TID 0000.0001) %MON vort_a_sd                    =   3.6429591769541E-06
(PID.TID 0000.0001) %MON vort_p_mean                  =   1.1210870169429E-04
(PID.TID 0000.0001) %MON vort_p_sd                    =   2.1070851980558E-05
(PID.TID 0000.0001) %MON surfExpan_theta_mean         =   1.8073273725645E-19
(PID.TID 0000.0001) %MON surfExpan_salt_mean          =   2.7108792806915E-19
(PID.TID 0000.0001) // =======================================================
(PID.TID 0000.0001) // End MONITOR dynamic field statistics
(PID.TID 0000.0001) // =======================================================
 cg2d: Sum(rhs),rhsMax =   3.55270308993197E-03  1.32482785322273E-02
 cg2d: Sum(rhs),rhsMax =   3.55312287171437E-03  1.32485468157861E-02
 cg2d: Sum(rhs),rhsMax =   3.55354337491809E-03  1.32488151246896E-02
 cg2d: Sum(rhs),rhsMax =   3.55396457735188E-03  1.32490834728828E-02
 cg2d: Sum(rhs),rhsMax =   3.55438656452423E-03  1.32493518482561E-02
 cg2d: Sum(rhs),rhsMax =   3.55480922226496E-03  1.32496202617175E-02
 cg2d: Sum(rhs),rhsMax =   3.55523263093996E-03  1.32498887011669E-02
 cg2d: Sum(rhs),rhsMax =   3.55565665688273E-03  1.32501571771562E-02
 cg2d: Sum(rhs),rhsMax =   3.55608127467742E-03  1.32504256800480E-02
 cg2d: Sum(rhs),rhsMax =   3.55650669868688E-03  1.32506942178185E-02
 cg2d: Sum(rhs),rhsMax =   3.55693282638977E-03  1.32509627797945E-02
 cg2d: Sum(rhs),rhsMax =   3.55735963549761E-03  1.32512313791398E-02
 cg2d: Sum(rhs),rhsMax =   3.55778708374821E-03  1.32515000023712E-02
 cg2d: Sum(rhs),rhsMax =   3.55821528291437E-03  1.32517686605469E-02
 cg2d: Sum(rhs),rhsMax =   3.55864406101291E-03  1.32520373413641E-02
 cg2d: Sum(rhs),rhsMax =   3.55907354322047E-03  1.32523060579544E-02
 cg2d: Sum(rhs),rhsMax =   3.55950371121956E-03  1.32525747965556E-02
 cg2d: Sum(rhs),rhsMax =   3.55993455660042E-03  1.32528435678066E-02
 cg2d: Sum(rhs),rhsMax =   3.56036601650959E-03  1.32531123600128E-02
 cg2d: Sum(rhs),rhsMax =   3.56079818286578E-03  1.32533811878361E-02
 cg2d: Sum(rhs),rhsMax =   3.56123098407935E-03  1.32536500364811E-02
 cg2d: Sum(rhs),rhsMax =   3.56166444651330E-03  1.32539189164461E-02
 cg2d: Sum(rhs),rhsMax =   3.56209852467421E-03  1.32541878161312E-02
 cg2d: Sum(rhs),rhsMax =   3.56253317611564E-03  1.32544567501560E-02
 cg2d: Sum(rhs),rhsMax =   3.56296852249260E-03  1.32547257014491E-02
 cg2d: Sum(rhs),rhsMax =   3.56340450897871E-03  1.32549946838708E-02
 cg2d: Sum(rhs),rhsMax =   3.56384113746316E-03  1.32552636849078E-02
 cg2d: Sum(rhs),rhsMax =   3.56427839736359E-03  1.32555327167322E-02
 cg2d: Sum(rhs),rhsMax =   3.56471630083387E-03  1.32558017669858E-02
 cg2d: Sum(rhs),rhsMax =   3.56515474521490E-03  1.32560708468475E-02
 cg2d: Sum(rhs),rhsMax =   3.56559384463213E-03  1.32563399441217E-02
 cg2d: Sum(rhs),rhsMax =   3.56603338365874E-03  1.32566090697788E-02
 cg2d: Sum(rhs),rhsMax =   3.56647365384523E-03  1.32568782130138E-02
 cg2d: Sum(rhs),rhsMax =   3.56691452461754E-03  1.32571473853158E-02
 cg2d: Sum(rhs),rhsMax =   3.56735598407451E-03  1.32574165718168E-02
 cg2d: Sum(rhs),rhsMax =   3.56779808722916E-03  1.32576857865167E-02
 cg2d: Sum(rhs),rhsMax =   3.56824063945321E-03  1.32579550158318E-02
 cg2d: Sum(rhs),rhsMax =   3.56868387530401E-03  1.32582242718675E-02
 cg2d: Sum(rhs),rhsMax =   3.56912756170231E-03  1.32584935423285E-02
 cg2d: Sum(rhs),rhsMax =   3.56957188883409E-03  1.32587628387412E-02
 cg2d: Sum(rhs),rhsMax =   3.57001686520752E-03  1.32590321490517E-02
 cg2d: Sum(rhs),rhsMax =   3.57046236200290E-03  1.32593014840383E-02
 cg2d: Sum(rhs),rhsMax =   3.57090848918786E-03  1.32595708319497E-02
 cg2d: Sum(rhs),rhsMax =   3.57135508467003E-03  1.32598402047903E-02
 cg2d: Sum(rhs),rhsMax =   3.57180225333298E-03  1.32601095895010E-02
 cg2d: Sum(rhs),rhsMax =   3.57224992653800E-03  1.32603789993015E-02
 cg2d: Sum(rhs),rhsMax =   3.57269808671009E-03  1.32606484201880E-02
 cg2d: Sum(rhs),rhsMax =   3.57314686298328E-03  1.32609178637081E-02
 cg2d: Sum(rhs),rhsMax =   3.57359612235508E-03  1.32611873171536E-02
 cg2d: Sum(rhs),rhsMax =   3.57404588456483E-03  1.32614567955593E-02
 cg2d: Sum(rhs),rhsMax =   3.57449625212271E-03  1.32617262805532E-02
 cg2d: Sum(rhs),rhsMax =   3.57494713775321E-03  1.32619957877168E-02
 cg2d: Sum(rhs),rhsMax =   3.57539852381413E-03  1.32622653042206E-02
 cg2d: Sum(rhs),rhsMax =   3.57585044031621E-03  1.32625348428945E-02
 cg2d: Sum(rhs),rhsMax =   3.57630287897961E-03  1.32628043891136E-02
 cg2d: Sum(rhs),rhsMax =   3.57675568996258E-03  1.32630739546061E-02
 cg2d: Sum(rhs),rhsMax =   3.57720915263650E-03  1.32633435292935E-02
 cg2d: Sum(rhs),rhsMax =   3.57766295397284E-03  1.32636131257178E-02
 cg2d: Sum(rhs),rhsMax =   3.57811733264050E-03  1.32638827265530E-02
 cg2d: Sum(rhs),rhsMax =   3.57857224131199E-03  1.32641523455946E-02
 cg2d: Sum(rhs),rhsMax =   3.57902762461934E-03  1.32644219704927E-02
 cg2d: Sum(rhs),rhsMax =   3.57948349951234E-03  1.32646916133362E-02
 cg2d: Sum(rhs),rhsMax =   3.57993979963437E-03  1.32649612634422E-02
 cg2d: Sum(rhs),rhsMax =   3.58039658445294E-03  1.32652309295671E-02
 cg2d: Sum(rhs),rhsMax =   3.58085386108241E-03  1.32655006001418E-02
 cg2d: Sum(rhs),rhsMax =   3.58131158361144E-03  1.32657702862789E-02
 cg2d: Sum(rhs),rhsMax =   3.58176973377535E-03  1.32660399778189E-02
 cg2d: Sum(rhs),rhsMax =   3.58222833264478E-03  1.32663096834004E-02
 cg2d: Sum(rhs),rhsMax =   3.58268739709752E-03  1.32665793919715E-02
 cg2d: Sum(rhs),rhsMax =   3.58314689716174E-03  1.32668491162875E-02
 cg2d: Sum(rhs),rhsMax =   3.58360689805199E-03  1.32671188431114E-02
 cg2d: Sum(rhs),rhsMax =   3.58406722877920E-03  1.32673885844545E-02
(PID.TID 0000.0001)      cg2d_init_res =   1.49578965991823E-03
(PID.TID 0000.0001)      cg2d_iters(min,last) =      -1     353
(PID.TID 0000.0001)      cg2d_last_res =   9.39837202966525E-08
(PID.TID 0000.0001) // =======================================================
(PID.TID 0000.0001) // Begin MONITOR dynamic field statistics
(PID.TID 0000.0001) // =======================================================
(PID.TID 0000.0001) %MON time_tsnumber                =                 18288
(PID.TID 0000.0001) %MON time_secondsf                =   2.1945600000000E+07
(PID.TID 0000.0001) %MON dynstat_eta_max              =   1.3576436229851E-01
(PID.TID 0000.0001) %MON dynstat_eta_min              =  -3.4530456082008E-01
(PID.TID 0000.0001) %MON dynstat_eta_mean             =  -2.2631972422695E-07
(PID.TID 0000.0001) %MON dynstat_eta_sd               =   1.2067121056587E-01
(PID.TID 0000.0001) %MON dynstat_eta_del2             =   7.3090410157760E-07
(PID.TID 0000.0001) %MON dynstat_uvel_max             =   1.3043634058592E-01
(PID.TID 0000.0001) %MON dynstat_uvel_min             =  -1.3151595039550E-01
(PID.TID 0000.0001) %MON dynstat_uvel_mean            =   7.5294711949142E-08
(PID.TID 0000.0001) %MON dynstat_uvel_sd              =   5.0437339355143E-02
(PID.TID 0000.0001) %MON dynstat_uvel_del2            =   1.0956362652490E-06
(PID.TID 0000.0001) %MON dynstat_vvel_max             =   1.5817426072849E-01
(PID.TID 0000.0001) %MON dynstat_vvel_min             =  -1.2348830057182E-01
(PID.TID 0000.0001) %MON dynstat_vvel_mean            =  -2.4500922744709E-08
(PID.TID 0000.0001) %MON dynstat_vvel_sd              =   4.8220423084329E-02
(PID.TID 0000.0001) %MON dynstat_vvel_del2            =   1.2890596574594E-06
(PID.TID 0000.0001) %MON dynstat_wvel_max             =   4.5841319859028E-09
(PID.TID 0000.0001) %MON dynstat_wvel_min             =  -7.2194960806519E-09
(PID.TID 0000.0001) %MON dynstat_wvel_mean            =  -2.8858810185448E-21
(PID.TID 0000.0001) %MON dynstat_wvel_sd              =   2.4275557230665E-09
(PID.TID 0000.0001) %MON dynstat_wvel_del2            =   2.5083867057238E-14
(PID.TID 0000.0001) %MON dynstat_theta_max            =   2.0000000000000E+01
(PID.TID 0000.0001) %MON dynstat_theta_min            =   2.0000000000000E+01
(PID.TID 0000.0001) %MON dynstat_theta_mean           =   1.9999999999999E+01
(PID.TID 0000.0001) %MON dynstat_theta_sd             =   1.1972645097557E-12
(PID.TID 0000.0001) %MON dynstat_theta_del2           =   0.0000000000000E+00
(PID.TID 0000.0001) %MON dynstat_salt_max             =   3.0000000000000E+01
(PID.TID 0000.0001) %MON dynstat_salt_min             =   3.0000000000000E+01
(PID.TID 0000.0001) %MON dynstat_salt_mean            =   2.9999999999998E+01
(PID.TID 0000.0001) %MON dynstat_salt_sd              =   2.1529444893531E-12
(PID.TID 0000.0001) %MON dynstat_salt_del2            =   0.0000000000000E+00
(PID.TID 0000.0001) %MON trAdv_CFL_u_max              =   3.1563559681840E-02
(PID.TID 0000.0001) %MON trAdv_CFL_v_max              =   3.7960662197442E-02
(PID.TID 0000.0001) %MON trAdv_CFL_w_max              =   1.1684495226438E-09
(PID.TID 0000.0001) %MON advcfl_uvel_max              =   3.1563828094920E-02
(PID.TID 0000.0001) %MON advcfl_vvel_max              =   3.7961822574839E-02
(PID.TID 0000.0001) %MON advcfl_wvel_max              =   3.4653581187129E-09
(PID.TID 0000.0001) %MON advcfl_W_hf_max              =   0.0000000000000E+00
(PID.TID 0000.0001) %MON pe_b_mean                    =   1.4898450967307E-05
(PID.TID 0000.0001) %MON ke_max                       =   1.2521879764771E-02
(PID.TID 0000.0001) %MON ke_mean                      =   2.4236082883317E-03
(PID.TID 0000.0001) %MON ke_vol                       =   7.2529629296391E+15
(PID.TID 0000.0001) %MON vort_r_min                   =  -4.3533970756067E-06
(PID.TID 0000.0001) %MON vort_r_max                   =   3.4825609112263E-06
(PID.TID 0000.0001) %MON vort_a_mean                  =   1.0615000000000E-04
(PID.TID 0000.0001) %MON vort_a_sd                    =   3.6430899978085E-06
(PID.TID 0000.0001) %MON vort_p_mean                  =   1.1210870169429E-04
(PID.TID 0000.0001) %MON vort_p_sd                    =   2.1070897435472E-05
(PID.TID 0000.0001) %MON surfExpan_theta_mean         =  -5.7759567650412E-20
(PID.TID 0000.0001) %MON surfExpan_salt_mean          =  -8.6643343552593E-20
(PID.TID 0000.0001) // =======================================================
(PID.TID 0000.0001) // End MONITOR dynamic field statistics
(PID.TID 0000.0001) // =======================================================
 cg2d: Sum(rhs),rhsMax =   3.58452802599916E-03  1.32676583257503E-02
 cg2d: Sum(rhs),rhsMax =   3.58498924597749E-03  1.32679280810891E-02
 cg2d: Sum(rhs),rhsMax =   3.58545075904910E-03  1.32681978399938E-02
 cg2d: Sum(rhs),rhsMax =   3.58591284862154E-03  1.32684676088045E-02
 cg2d: Sum(rhs),rhsMax =   3.58637528182634E-03  1.32687373773515E-02
 cg2d: Sum(rhs),rhsMax =   3.58683818340323E-03  1.32690071581605E-02
 cg2d: Sum(rhs),rhsMax =   3.58730135420400E-03  1.32692769381404E-02
 cg2d: Sum(rhs),rhsMax =   3.58776498011456E-03  1.32695467286508E-02
 cg2d: Sum(rhs),rhsMax =   3.58822901523981E-03  1.32698165174134E-02
 cg2d: Sum(rhs),rhsMax =   3.58869339370452E-03  1.32700863166808E-02
 cg2d: Sum(rhs),rhsMax =   3.58915818711121E-03  1.32703561148048E-02
 cg2d: Sum(rhs),rhsMax =   3.58962342677504E-03  1.32706259224014E-02
 cg2d: Sum(rhs),rhsMax =   3.59008896922576E-03  1.32708957271697E-02
 cg2d: Sum(rhs),rhsMax =   3.59055486949571E-03  1.32711655388734E-02
 cg2d: Sum(rhs),rhsMax =   3.59102108747869E-03  1.32714353470957E-02
 cg2d: Sum(rhs),rhsMax =   3.59148771627132E-03  1.32717051663264E-02
 cg2d: Sum(rhs),rhsMax =   3.59195470723862E-03  1.32719749791732E-02
 cg2d: Sum(rhs),rhsMax =   3.59242204289774E-03  1.32722447987482E-02
 cg2d: Sum(rhs),rhsMax =   3.59288973218206E-03  1.32725146125674E-02
 cg2d: Sum(rhs),rhsMax =   3.59335774243534E-03  1.32727844331854E-02
 cg2d: Sum(rhs),rhsMax =   3.59382608676109E-03  1.32730542462299E-02
 cg2d: Sum(rhs),rhsMax =   3.59429457218458E-03  1.32733240634236E-02
 cg2d: Sum(rhs),rhsMax =   3.59476355329930E-03  1.32735938772870E-02
 cg2d: Sum(rhs),rhsMax =   3.59523283934610E-03  1.32738636958971E-02
 cg2d: Sum(rhs),rhsMax =   3.59570248402760E-03  1.32741335058044E-02
 cg2d: Sum(rhs),rhsMax =   3.59617238294450E-03  1.32744033198922E-02
 cg2d: Sum(rhs),rhsMax =   3.59664259026443E-03  1.32746731250854E-02
 cg2d: Sum(rhs),rhsMax =   3.59711303511192E-03  1.32749429333207E-02
 cg2d: Sum(rhs),rhsMax =   3.59758379698083E-03  1.32752127353134E-02
 cg2d: Sum(rhs),rhsMax =   3.59805487156540E-03  1.32754825381012E-02
 cg2d: Sum(rhs),rhsMax =   3.59852626650037E-03  1.32757523290431E-02
 cg2d: Sum(rhs),rhsMax =   3.59899782296775E-03  1.32760221216101E-02
 cg2d: Sum(rhs),rhsMax =   3.59946973729431E-03  1.32762919052830E-02
 cg2d: Sum(rhs),rhsMax =   3.59997753160948E-03  1.32765616770613E-02
 cg2d: Sum(rhs),rhsMax =   3.60048547844996E-03  1.32768314526405E-02
 cg2d: Sum(rhs),rhsMax =   3.60099384248480E-03  1.32771012219977E-02
 cg2d: Sum(rhs),rhsMax =   3.60150241750588E-03  1.32773709856625E-02
 cg2d: Sum(rhs),rhsMax =   3.60201114219774E-03  1.32776407429679E-02
 cg2d: Sum(rhs),rhsMax =   3.60252020675098E-03  1.32779104906399E-02
 cg2d: Sum(rhs),rhsMax =   3.60302946543318E-03  1.32781802335573E-02
 cg2d: Sum(rhs),rhsMax =   3.60353894863965E-03  1.32784499649192E-02
 cg2d: Sum(rhs),rhsMax =   3.60404878246437E-03  1.32787196894514E-02
 cg2d: Sum(rhs),rhsMax =   3.60455878280077E-03  1.32789894030919E-02
 cg2d: Sum(rhs),rhsMax =   3.60506898664251E-03  1.32792591100157E-02
 cg2d: Sum(rhs),rhsMax =   3.60557939234799E-03  1.32795288082697E-02
 cg2d: Sum(rhs),rhsMax =   3.60608976663932E-03  1.32797984995491E-02
 cg2d: Sum(rhs),rhsMax =   3.60660051759942E-03  1.32800681724601E-02
 cg2d: Sum(rhs),rhsMax =   3.60711147422931E-03  1.32803378394674E-02
 cg2d: Sum(rhs),rhsMax =   3.60762263114493E-03  1.32806074925485E-02
 cg2d: Sum(rhs),rhsMax =   3.60813404797060E-03  1.32808771372610E-02
 cg2d: Sum(rhs),rhsMax =   3.60864553881998E-03  1.32811467677977E-02
 cg2d: Sum(rhs),rhsMax =   3.60915721248966E-03  1.32814163869149E-02
 cg2d: Sum(rhs),rhsMax =   3.60966886927395E-03  1.32816859940604E-02
 cg2d: Sum(rhs),rhsMax =   3.61018090172005E-03  1.32819555879745E-02
 cg2d: Sum(rhs),rhsMax =   3.61069301362427E-03  1.32822251670185E-02
 cg2d: Sum(rhs),rhsMax =   3.61120514747990E-03  1.32824947337197E-02
 cg2d: Sum(rhs),rhsMax =   3.61171752714736E-03  1.32827642831133E-02
 cg2d: Sum(rhs),rhsMax =   3.61222999744838E-03  1.32830338186194E-02
 cg2d: Sum(rhs),rhsMax =   3.61274265493985E-03  1.32833033402924E-02
 cg2d: Sum(rhs),rhsMax =   3.61325536400568E-03  1.32835728455942E-02
 cg2d: Sum(rhs),rhsMax =   3.61376816489741E-03  1.32838423354580E-02
 cg2d: Sum(rhs),rhsMax =   3.61428102680335E-03  1.32841118096554E-02
 cg2d: Sum(rhs),rhsMax =   3.61479387250129E-03  1.32843812642759E-02
 cg2d: Sum(rhs),rhsMax =   3.61530695686585E-03  1.32846507035787E-02
 cg2d: Sum(rhs),rhsMax =   3.61582010799429E-03  1.32849201256946E-02
 cg2d: Sum(rhs),rhsMax =   3.61633328848115E-03  1.32851895302518E-02
 cg2d: Sum(rhs),rhsMax =   3.61684660701131E-03  1.32854589152664E-02
 cg2d: Sum(rhs),rhsMax =   3.61735997859117E-03  1.32857282823789E-02
 cg2d: Sum(rhs),rhsMax =   3.61787338949487E-03  1.32859976290639E-02
 cg2d: Sum(rhs),rhsMax =   3.61838688486476E-03  1.32862669568383E-02
 cg2d: Sum(rhs),rhsMax =   3.61890044748853E-03  1.32865362649091E-02
 cg2d: Sum(rhs),rhsMax =   3.61941402955267E-03  1.32868055521913E-02
(PID.TID 0000.0001)      cg2d_init_res =   1.47903439504023E-03
(PID.TID 0000.0001)      cg2d_iters(min,last) =      -1     352
(PID.TID 0000.0001)      cg2d_last_res =   9.58164071154858E-08
(PID.TID 0000.0001) // =======================================================
(PID.TID 0000.0001) // Begin MONITOR dynamic field statistics
(PID.TID 0000.0001) // =======================================================
(PID.TID 0000.0001) %MON time_tsnumber                =                 18360
(PID.TID 0000.0001) %MON time_secondsf                =   2.2032000000000E+07
(PID.TID 0000.0001) %MON dynstat_eta_max              =   1.3568483748632E-01
(PID.TID 0000.0001) %MON dynstat_eta_min              =  -3.4579589243606E-01
(PID.TID 0000.0001) %MON dynstat_eta_mean             =  -2.2888926213028E-07
(PID.TID 0000.0001) %MON dynstat_eta_sd               =   1.2080392093380E-01
(PID.TID 0000.0001) %MON dynstat_eta_del2             =   7.3151373314400E-07
(PID.TID 0000.0001) %MON dynstat_uvel_max             =   1.3062204828671E-01
(PID.TID 0000.0001) %MON dynstat_uvel_min             =  -1.3159763887106E-01
(PID.TID 0000.0001) %MON dynstat_uvel_mean            =   7.3316933196750E-08
(PID.TID 0000.0001) %MON dynstat_uvel_sd              =   5.0494992888735E-02
(PID.TID 0000.0001) %MON dynstat_uvel_del2            =   1.0969135418248E-06
(PID.TID 0000.0001) %MON dynstat_vvel_max             =   1.5851675372930E-01
(PID.TID 0000.0001) %MON dynstat_vvel_min             =  -1.2369021712591E-01
(PID.TID 0000.0001) %MON dynstat_vvel_mean            =  -3.7057172698247E-08
(PID.TID 0000.0001) %MON dynstat_vvel_sd              =   4.8283053224384E-02
(PID.TID 0000.0001) %MON dynstat_vvel_del2            =   1.2873360712662E-06
(PID.TID 0000.0001) %MON dynstat_wvel_max             =   4.5286463759840E-09
(PID.TID 0000.0001) %MON dynstat_wvel_min             =  -6.8599462229758E-09
(PID.TID 0000.0001) %MON dynstat_wvel_mean            =  -5.5797115474488E-21
(PID.TID 0000.0001) %MON dynstat_wvel_sd              =   2.4039417665542E-09
(PID.TID 0000.0001) %MON dynstat_wvel_del2            =   2.5172877626015E-14
(PID.TID 0000.0001) %MON dynstat_theta_max            =   2.0000000000000E+01
(PID.TID 0000.0001) %MON dynstat_theta_min            =   2.0000000000000E+01
(PID.TID 0000.0001) %MON dynstat_theta_mean           =   1.9999999999999E+01
(PID.TID 0000.0001) %MON dynstat_theta_sd             =   1.1972645097557E-12
(PID.TID 0000.0001) %MON dynstat_theta_del2           =   0.0000000000000E+00
(PID.TID 0000.0001) %MON dynstat_salt_max             =   3.0000000000000E+01
(PID.TID 0000.0001) %MON dynstat_salt_min             =   3.0000000000000E+01
(PID.TID 0000.0001) %MON dynstat_salt_mean            =   2.9999999999998E+01
(PID.TID 0000.0001) %MON dynstat_salt_sd              =   2.1529444893531E-12
(PID.TID 0000.0001) %MON dynstat_salt_del2            =   0.0000000000000E+00
(PID.TID 0000.0001) %MON trAdv_CFL_u_max              =   3.1583157495973E-02
(PID.TID 0000.0001) %MON trAdv_CFL_v_max              =   3.8042897406883E-02
(PID.TID 0000.0001) %MON trAdv_CFL_w_max              =   1.1562849948823E-09
(PID.TID 0000.0001) %MON advcfl_uvel_max              =   3.1583433329053E-02
(PID.TID 0000.0001) %MON advcfl_vvel_max              =   3.8044020895032E-02
(PID.TID 0000.0001) %MON advcfl_wvel_max              =   3.2927741870284E-09
(PID.TID 0000.0001) %MON advcfl_W_hf_max              =   0.0000000000000E+00
(PID.TID 0000.0001) %MON pe_b_mean                    =   1.4931238673995E-05
(PID.TID 0000.0001) %MON ke_max                       =   1.2575786387149E-02
(PID.TID 0000.0001) %MON ke_mean                      =   2.4295131540186E-03
(PID.TID 0000.0001) %MON ke_vol                       =   7.2529629296391E+15
(PID.TID 0000.0001) %MON vort_r_min                   =  -4.3595697796559E-06
(PID.TID 0000.0001) %MON vort_r_max                   =   3.4748299117765E-06
(PID.TID 0000.0001) %MON vort_a_mean                  =   1.0615000000000E-04
(PID.TID 0000.0001) %MON vort_a_sd                    =   3.6432234620897E-06
(PID.TID 0000.0001) %MON vort_p_mean                  =   1.1210870169429E-04
(PID.TID 0000.0001) %MON vort_p_sd                    =   2.1070937404304E-05
(PID.TID 0000.0001) %MON surfExpan_theta_mean         =  -1.1168976599117E-19
(PID.TID 0000.0001) %MON surfExpan_salt_mean          =  -1.6753285020383E-19
(PID.TID 0000.0001) // =======================================================
(PID.TID 0000.0001) // End MONITOR dynamic field statistics
(PID.TID 0000.0001) // =======================================================
 cg2d: Sum(rhs),rhsMax =   3.61992767389419E-03  1.32870748164254E-02
 cg2d: Sum(rhs),rhsMax =   3.62044133582418E-03  1.32873440609867E-02
 cg2d: Sum(rhs),rhsMax =   3.62095488728172E-03  1.32876132834551E-02
 cg2d: Sum(rhs),rhsMax =   3.62146855013066E-03  1.32878824858879E-02
 cg2d: Sum(rhs),rhsMax =   3.62198226952445E-03  1.32881516645535E-02
 cg2d: Sum(rhs),rhsMax =   3.62249593830666E-03  1.32884208233761E-02
 cg2d: Sum(rhs),rhsMax =   3.62300968417339E-03  1.32886899549532E-02
 cg2d: Sum(rhs),rhsMax =   3.62352333339832E-03  1.32889590664592E-02
 cg2d: Sum(rhs),rhsMax =   3.62403705609201E-03  1.32892281489291E-02
 cg2d: Sum(rhs),rhsMax =   3.62455068740991E-03  1.32894972107765E-02
 cg2d: Sum(rhs),rhsMax =   3.62506433792403E-03  1.32897662447961E-02
 cg2d: Sum(rhs),rhsMax =   3.62557793975307E-03  1.32900352566114E-02
 cg2d: Sum(rhs),rhsMax =   3.62609131171326E-03  1.32903042401709E-02
 cg2d: Sum(rhs),rhsMax =   3.62660484198720E-03  1.32905731987707E-02
 cg2d: Sum(rhs),rhsMax =   3.62711831079436E-03  1.32908421289313E-02
 cg2d: Sum(rhs),rhsMax =   3.62763172663443E-03  1.32911110354068E-02
 cg2d: Sum(rhs),rhsMax =   3.62814499095411E-03  1.32913799098415E-02
 cg2d: Sum(rhs),rhsMax =   3.62865817445484E-03  1.32916487603817E-02
 cg2d: Sum(rhs),rhsMax =   3.62917139412530E-03  1.32919175826634E-02
 cg2d: Sum(rhs),rhsMax =   3.62968433628565E-03  1.32921863749093E-02
 cg2d: Sum(rhs),rhsMax =   3.63019729849569E-03  1.32924551406042E-02
 cg2d: Sum(rhs),rhsMax =   3.63071013232626E-03  1.32927238754721E-02
 cg2d: Sum(rhs),rhsMax =   3.63122294971390E-03  1.32929925782371E-02
 cg2d: Sum(rhs),rhsMax =   3.63173534959690E-03  1.32932612533254E-02
 cg2d: Sum(rhs),rhsMax =   3.63224785339081E-03  1.32935298970465E-02
 cg2d: Sum(rhs),rhsMax =   3.63276015819220E-03  1.32937985108446E-02
 cg2d: Sum(rhs),rhsMax =   3.63327231507292E-03  1.32940670927138E-02
 cg2d: Sum(rhs),rhsMax =   3.63378446022712E-03  1.32943356416760E-02
 cg2d: Sum(rhs),rhsMax =   3.63429638665596E-03  1.32946041564702E-02
 cg2d: Sum(rhs),rhsMax =   3.63480820361321E-03  1.32948726421821E-02
 cg2d: Sum(rhs),rhsMax =   3.63531983001908E-03  1.32951410935081E-02
 cg2d: Sum(rhs),rhsMax =   3.63583125659062E-03  1.32954095108113E-02
 cg2d: Sum(rhs),rhsMax =   3.63634253921717E-03  1.32956778932288E-02
 cg2d: Sum(rhs),rhsMax =   3.63685344607020E-03  1.32959462431022E-02
 cg2d: Sum(rhs),rhsMax =   3.63736428223052E-03  1.32962145588020E-02
 cg2d: Sum(rhs),rhsMax =   3.63787490981422E-03  1.32964828395012E-02
 cg2d: Sum(rhs),rhsMax =   3.63838539810816E-03  1.32967510824850E-02
 cg2d: Sum(rhs),rhsMax =   3.63889557092961E-03  1.32970192915984E-02
 cg2d: Sum(rhs),rhsMax =   3.63940550569952E-03  1.32972874635865E-02
 cg2d: Sum(rhs),rhsMax =   3.63991526630066E-03  1.32975555981854E-02
 cg2d: Sum(rhs),rhsMax =   3.64042482104373E-03  1.32978236950758E-02
 cg2d: Sum(rhs),rhsMax =   3.64093414292133E-03  1.32980917548734E-02
 cg2d: Sum(rhs),rhsMax =   3.64144320672338E-03  1.32983597774872E-02
 cg2d: Sum(rhs),rhsMax =   3.64195187771494E-03  1.32986277608078E-02
 cg2d: Sum(rhs),rhsMax =   3.64250028284362E-03  1.32988957042323E-02
 cg2d: Sum(rhs),rhsMax =   3.64304849343241E-03  1.32991636056118E-02
 cg2d: Sum(rhs),rhsMax =   3.64359652359907E-03  1.32994314739047E-02
 cg2d: Sum(rhs),rhsMax =   3.64414399903915E-03  1.32996992950784E-02
 cg2d: Sum(rhs),rhsMax =   3.64469132850842E-03  1.32999670841317E-02
 cg2d: Sum(rhs),rhsMax =   3.64523797555419E-03  1.33002348281887E-02
 cg2d: Sum(rhs),rhsMax =   3.64578452646228E-03  1.33005025311284E-02
 cg2d: Sum(rhs),rhsMax =   3.64633049339264E-03  1.33007701881650E-02
 cg2d: Sum(rhs),rhsMax =   3.64687622948783E-03  1.33010378104391E-02
 cg2d: Sum(rhs),rhsMax =   3.64742161056394E-03  1.33013053839333E-02
 cg2d: Sum(rhs),rhsMax =   3.64796647254243E-03  1.33015729200727E-02
 cg2d: Sum(rhs),rhsMax =   3.64851100460510E-03  1.33018404063953E-02
 cg2d: Sum(rhs),rhsMax =   3.64905478013252E-03  1.33021078552216E-02
 cg2d: Sum(rhs),rhsMax =   3.64959833279522E-03  1.33023752561286E-02
 cg2d: Sum(rhs),rhsMax =   3.65014154897986E-03  1.33026426167116E-02
 cg2d: Sum(rhs),rhsMax =   3.65068396114685E-03  1.33029099223276E-02
 cg2d: Sum(rhs),rhsMax =   3.65122633847125E-03  1.33031771915190E-02
 cg2d: Sum(rhs),rhsMax =   3.65176798471790E-03  1.33034444090212E-02
 cg2d: Sum(rhs),rhsMax =   3.65230917754937E-03  1.33037122167393E-02
 cg2d: Sum(rhs),rhsMax =   3.65284606347355E-03  1.33039938374132E-02
 cg2d: Sum(rhs),rhsMax =   3.65362264209641E-03  1.33042754203087E-02
 cg2d: Sum(rhs),rhsMax =   3.65439806983920E-03  1.33045569492193E-02
 cg2d: Sum(rhs),rhsMax =   3.65521770704346E-03  1.33048384317365E-02
 cg2d: Sum(rhs),rhsMax =   3.65603630826814E-03  1.33051198688114E-02
 cg2d: Sum(rhs),rhsMax =   3.65685369314275E-03  1.33054012581123E-02
 cg2d: Sum(rhs),rhsMax =   3.65766985124800E-03  1.33056826001742E-02
 cg2d: Sum(rhs),rhsMax =   3.65848480462533E-03  1.33059638939362E-02
 cg2d: Sum(rhs),rhsMax =   3.65929859941832E-03  1.33062451400105E-02
(PID.TID 0000.0001)      cg2d_init_res =   1.46042860585250E-03
(PID.TID 0000.0001)      cg2d_iters(min,last) =      -1     345
(PID.TID 0000.0001)      cg2d_last_res =   9.87581476847755E-08
(PID.TID 0000.0001) // =======================================================
(PID.TID 0000.0001) // Begin MONITOR dynamic field statistics
(PID.TID 0000.0001) // =======================================================
(PID.TID 0000.0001) %MON time_tsnumber                =                 18432
(PID.TID 0000.0001) %MON time_secondsf                =   2.2118400000000E+07
(PID.TID 0000.0001) %MON dynstat_eta_max              =   1.3559965731117E-01
(PID.TID 0000.0001) %MON dynstat_eta_min              =  -3.4628805614820E-01
(PID.TID 0000.0001) %MON dynstat_eta_mean             =  -2.3176883822447E-07
(PID.TID 0000.0001) %MON dynstat_eta_sd               =   1.2093758945572E-01
(PID.TID 0000.0001) %MON dynstat_eta_del2             =   7.3213170225460E-07
(PID.TID 0000.0001) %MON dynstat_uvel_max             =   1.3081811656726E-01
(PID.TID 0000.0001) %MON dynstat_uvel_min             =  -1.3168130842983E-01
(PID.TID 0000.0001) %MON dynstat_uvel_mean            =   6.8578880420850E-08
(PID.TID 0000.0001) %MON dynstat_uvel_sd              =   5.0556212238414E-02
(PID.TID 0000.0001) %MON dynstat_uvel_del2            =   1.0982799121675E-06
(PID.TID 0000.0001) %MON dynstat_vvel_max             =   1.5884829828168E-01
(PID.TID 0000.0001) %MON dynstat_vvel_min             =  -1.2387215537945E-01
(PID.TID 0000.0001) %MON dynstat_vvel_mean            =  -4.8941210048828E-08
(PID.TID 0000.0001) %MON dynstat_vvel_sd              =   4.8341483327836E-02
(PID.TID 0000.0001) %MON dynstat_vvel_del2            =   1.2858632353677E-06
(PID.TID 0000.0001) %MON dynstat_wvel_max             =   4.4744333578274E-09
(PID.TID 0000.0001) %MON dynstat_wvel_min             =  -6.9689385872334E-09
(PID.TID 0000.0001) %MON dynstat_wvel_mean            =   4.0682570575005E-21
(PID.TID 0000.0001) %MON dynstat_wvel_sd              =   2.3808116080793E-09
(PID.TID 0000.0001) %MON dynstat_wvel_del2            =   2.5033218260322E-14
(PID.TID 0000.0001) %MON dynstat_theta_max            =   2.0000000000000E+01
(PID.TID 0000.0001) %MON dynstat_theta_min            =   2.0000000000000E+01
(PID.TID 0000.0001) %MON dynstat_theta_mean           =   1.9999999999999E+01
(PID.TID 0000.0001) %MON dynstat_theta_sd             =   1.1972645097557E-12
(PID.TID 0000.0001) %MON dynstat_theta_del2           =   0.0000000000000E+00
(PID.TID 0000.0001) %MON dynstat_salt_max             =   3.0000000000000E+01
(PID.TID 0000.0001) %MON dynstat_salt_min             =   3.0000000000000E+01
(PID.TID 0000.0001) %MON dynstat_salt_mean            =   2.9999999999998E+01
(PID.TID 0000.0001) %MON dynstat_salt_sd              =   2.1529444893531E-12
(PID.TID 0000.0001) %MON dynstat_salt_del2            =   0.0000000000000E+00
(PID.TID 0000.0001) %MON trAdv_CFL_u_max              =   3.1603232459604E-02
(PID.TID 0000.0001) %MON trAdv_CFL_v_max              =   3.8122504027804E-02
(PID.TID 0000.0001) %MON trAdv_CFL_w_max              =   1.1444743939698E-09
(PID.TID 0000.0001) %MON advcfl_uvel_max              =   3.1603514023158E-02
(PID.TID 0000.0001) %MON advcfl_vvel_max              =   3.8123591587603E-02
(PID.TID 0000.0001) %MON advcfl_wvel_max              =   3.3450905218720E-09
(PID.TID 0000.0001) %MON advcfl_W_hf_max              =   0.0000000000000E+00
(PID.TID 0000.0001) %MON pe_b_mean                    =   1.4964299534550E-05
(PID.TID 0000.0001) %MON ke_max                       =   1.2628059413573E-02
(PID.TID 0000.0001) %MON ke_mean                      =   2.4354025590565E-03
(PID.TID 0000.0001) %MON ke_vol                       =   7.2529629296391E+15
(PID.TID 0000.0001) %MON vort_r_min                   =  -4.3657556920185E-06
(PID.TID 0000.0001) %MON vort_r_max                   =   3.4677195402962E-06
(PID.TID 0000.0001) %MON vort_a_mean                  =   1.0615000000000E-04
(PID.TID 0000.0001) %MON vort_a_sd                    =   3.6433605750583E-06
(PID.TID 0000.0001) %MON vort_p_mean                  =   1.1210870169429E-04
(PID.TID 0000.0001) %MON vort_p_sd                    =   2.1070972797540E-05
(PID.TID 0000.0001) %MON surfExpan_theta_mean         =   8.1264306357053E-20
(PID.TID 0000.0001) %MON surfExpan_salt_mean          =   1.2192550070308E-19
(PID.TID 0000.0001) // =======================================================
(PID.TID 0000.0001) // End MONITOR dynamic field statistics
(PID.TID 0000.0001) // =======================================================
 cg2d: Sum(rhs),rhsMax =   3.66011051101516E-03  1.33065263373938E-02
 cg2d: Sum(rhs),rhsMax =   3.66092170167650E-03  1.33068074846611E-02
 cg2d: Sum(rhs),rhsMax =   3.66173166857044E-03  1.33070885827824E-02
 cg2d: Sum(rhs),rhsMax =   3.66254048555132E-03  1.33073696318614E-02
 cg2d: Sum(rhs),rhsMax =   3.66334794790841E-03  1.33076506297765E-02
 cg2d: Sum(rhs),rhsMax =   3.66419705542857E-03  1.33079315818998E-02
 cg2d: Sum(rhs),rhsMax =   3.66504452340728E-03  1.33082124785816E-02
 cg2d: Sum(rhs),rhsMax =   3.66589079633633E-03  1.33084933244300E-02
 cg2d: Sum(rhs),rhsMax =   3.66673539119569E-03  1.33087741168809E-02
 cg2d: Sum(rhs),rhsMax =   3.66757857895181E-03  1.33090548583569E-02
 cg2d: Sum(rhs),rhsMax =   3.66846234648143E-03  1.33093355462569E-02
 cg2d: Sum(rhs),rhsMax =   3.66934483422805E-03  1.33096161789290E-02
 cg2d: Sum(rhs),rhsMax =   3.67022568686573E-03  1.33098967611825E-02
 cg2d: Sum(rhs),rhsMax =   3.67110481065922E-03  1.33101772871145E-02
 cg2d: Sum(rhs),rhsMax =   3.67198192285291E-03  1.33104577581395E-02
 cg2d: Sum(rhs),rhsMax =   3.67285754463727E-03  1.33107381768708E-02
 cg2d: Sum(rhs),rhsMax =   3.67377455360266E-03  1.33110185415553E-02
 cg2d: Sum(rhs),rhsMax =   3.67468957727856E-03  1.33112988519342E-02
 cg2d: Sum(rhs),rhsMax =   3.67560283691667E-03  1.33115791014773E-02
 cg2d: Sum(rhs),rhsMax =   3.67651406345150E-03  1.33118592970442E-02
 cg2d: Sum(rhs),rhsMax =   3.67742318014940E-03  1.33121394339358E-02
 cg2d: Sum(rhs),rhsMax =   3.67833041101696E-03  1.33124195159823E-02
 cg2d: Sum(rhs),rhsMax =   3.67923550675618E-03  1.33126995373149E-02
 cg2d: Sum(rhs),rhsMax =   3.68013859598989E-03  1.33129795038913E-02
 cg2d: Sum(rhs),rhsMax =   3.68103963423507E-03  1.33132594105030E-02
 cg2d: Sum(rhs),rhsMax =   3.68193850457762E-03  1.33135392581703E-02
 cg2d: Sum(rhs),rhsMax =   3.68283528480467E-03  1.33138190449287E-02
 cg2d: Sum(rhs),rhsMax =   3.68372987319663E-03  1.33140987746372E-02
 cg2d: Sum(rhs),rhsMax =   3.68466456936361E-03  1.33143784394735E-02
 cg2d: Sum(rhs),rhsMax =   3.68559712980365E-03  1.33146580493404E-02
 cg2d: Sum(rhs),rhsMax =   3.68652745932431E-03  1.33149375957942E-02
 cg2d: Sum(rhs),rhsMax =   3.68745535630218E-03  1.33152170826962E-02
 cg2d: Sum(rhs),rhsMax =   3.68838085616380E-03  1.33154965053253E-02
 cg2d: Sum(rhs),rhsMax =   3.68930384850039E-03  1.33157758681927E-02
 cg2d: Sum(rhs),rhsMax =   3.69022435150988E-03  1.33160551658800E-02
 cg2d: Sum(rhs),rhsMax =   3.69118467371297E-03  1.33163343986488E-02
 cg2d: Sum(rhs),rhsMax =   3.69214206125171E-03  1.33166135732412E-02
 cg2d: Sum(rhs),rhsMax =   3.69309692024106E-03  1.33168926808062E-02
 cg2d: Sum(rhs),rhsMax =   3.69404872602287E-03  1.33171717268134E-02
 cg2d: Sum(rhs),rhsMax =   3.69504169812249E-03  1.33174507079289E-02
 cg2d: Sum(rhs),rhsMax =   3.69603167833895E-03  1.33177296238465E-02
 cg2d: Sum(rhs),rhsMax =   3.69701865065623E-03  1.33180084731105E-02
 cg2d: Sum(rhs),rhsMax =   3.69800235648805E-03  1.33182872571738E-02
 cg2d: Sum(rhs),rhsMax =   3.69898310267507E-03  1.33185659741750E-02
 cg2d: Sum(rhs),rhsMax =   3.69996051123479E-03  1.33188446247538E-02
 cg2d: Sum(rhs),rhsMax =   3.70093467541943E-03  1.33191232082019E-02
 cg2d: Sum(rhs),rhsMax =   3.70190581134525E-03  1.33194017228269E-02
 cg2d: Sum(rhs),rhsMax =   3.70287352256843E-03  1.33196801717401E-02
 cg2d: Sum(rhs),rhsMax =   3.70383817335214E-03  1.33199585506326E-02
 cg2d: Sum(rhs),rhsMax =   3.70479936036866E-03  1.33202368624417E-02
 cg2d: Sum(rhs),rhsMax =   3.70580082585147E-03  1.33205151048957E-02
 cg2d: Sum(rhs),rhsMax =   3.70679863295725E-03  1.33207932772797E-02
 cg2d: Sum(rhs),rhsMax =   3.70779290940475E-03  1.33210713808613E-02
 cg2d: Sum(rhs),rhsMax =   3.70878344663599E-03  1.33213494119885E-02
 cg2d: Sum(rhs),rhsMax =   3.70977029262727E-03  1.33216273744760E-02
 cg2d: Sum(rhs),rhsMax =   3.71075338747181E-03  1.33219052636543E-02
 cg2d: Sum(rhs),rhsMax =   3.71173279820412E-03  1.33221830835189E-02
 cg2d: Sum(rhs),rhsMax =   3.71270842007846E-03  1.33224608303945E-02
 cg2d: Sum(rhs),rhsMax =   3.71368027520215E-03  1.33227385057687E-02
 cg2d: Sum(rhs),rhsMax =   3.71464791540233E-03  1.33230161075223E-02
 cg2d: Sum(rhs),rhsMax =   3.71565396717207E-03  1.33232936361664E-02
 cg2d: Sum(rhs),rhsMax =   3.71665583541236E-03  1.33235710915841E-02
 cg2d: Sum(rhs),rhsMax =   3.71765361387098E-03  1.33238484727870E-02
 cg2d: Sum(rhs),rhsMax =   3.71864704965307E-03  1.33241257796911E-02
 cg2d: Sum(rhs),rhsMax =   3.71963636229324E-03  1.33244030115252E-02
 cg2d: Sum(rhs),rhsMax =   3.72066343523047E-03  1.33246801652294E-02
 cg2d: Sum(rhs),rhsMax =   3.72168586803139E-03  1.33249572470527E-02
 cg2d: Sum(rhs),rhsMax =   3.72270383775034E-03  1.33252342516029E-02
 cg2d: Sum(rhs),rhsMax =   3.72371705647833E-03  1.33255111806277E-02
 cg2d: Sum(rhs),rhsMax =   3.72472559088392E-03  1.33257880323885E-02
 cg2d: Sum(rhs),rhsMax =   3.72572936331804E-03  1.33260648072031E-02
 cg2d: Sum(rhs),rhsMax =   3.72672812268891E-03  1.33263415048202E-02
(PID.TID 0000.0001)      cg2d_init_res =   1.44030719597269E-03
(PID.TID 0000.0001)      cg2d_iters(min,last) =      -1     336
(PID.TID 0000.0001)      cg2d_last_res =   9.74280934709789E-08
(PID.TID 0000.0001) // =======================================================
(PID.TID 0000.0001) // Begin MONITOR dynamic field statistics
(PID.TID 0000.0001) // =======================================================
(PID.TID 0000.0001) %MON time_tsnumber                =                 18504
(PID.TID 0000.0001) %MON time_secondsf                =   2.2204800000000E+07
(PID.TID 0000.0001) %MON dynstat_eta_max              =   1.3551680900656E-01
(PID.TID 0000.0001) %MON dynstat_eta_min              =  -3.4678350938480E-01
(PID.TID 0000.0001) %MON dynstat_eta_mean             =  -2.3640661300835E-07
(PID.TID 0000.0001) %MON dynstat_eta_sd               =   1.2107235780303E-01
(PID.TID 0000.0001) %MON dynstat_eta_del2             =   7.3276203201412E-07
(PID.TID 0000.0001) %MON dynstat_uvel_max             =   1.3102361461347E-01
(PID.TID 0000.0001) %MON dynstat_uvel_min             =  -1.3177165876519E-01
(PID.TID 0000.0001) %MON dynstat_uvel_mean            =   6.1320178532978E-08
(PID.TID 0000.0001) %MON dynstat_uvel_sd              =   5.0620735940573E-02
(PID.TID 0000.0001) %MON dynstat_uvel_del2            =   1.0997152573342E-06
(PID.TID 0000.0001) %MON dynstat_vvel_max             =   1.5916934688698E-01
(PID.TID 0000.0001) %MON dynstat_vvel_min             =  -1.2403318873926E-01
(PID.TID 0000.0001) %MON dynstat_vvel_mean            =  -5.9706945139654E-08
(PID.TID 0000.0001) %MON dynstat_vvel_sd              =   4.8396197965707E-02
(PID.TID 0000.0001) %MON dynstat_vvel_del2            =   1.2847012765034E-06
(PID.TID 0000.0001) %MON dynstat_wvel_max             =   4.3905530078337E-09
(PID.TID 0000.0001) %MON dynstat_wvel_min             =  -7.1193078765646E-09
(PID.TID 0000.0001) %MON dynstat_wvel_mean            =   2.4658193422507E-22
(PID.TID 0000.0001) %MON dynstat_wvel_sd              =   2.3586544014004E-09
(PID.TID 0000.0001) %MON dynstat_wvel_del2            =   2.4733686954898E-14
(PID.TID 0000.0001) %MON dynstat_theta_max            =   2.0000000000000E+01
(PID.TID 0000.0001) %MON dynstat_theta_min            =   2.0000000000000E+01
(PID.TID 0000.0001) %MON dynstat_theta_mean           =   1.9999999999999E+01
(PID.TID 0000.0001) %MON dynstat_theta_sd             =   1.1972645097557E-12
(PID.TID 0000.0001) %MON dynstat_theta_del2           =   0.0000000000000E+00
(PID.TID 0000.0001) %MON dynstat_salt_max             =   3.0000000000000E+01
(PID.TID 0000.0001) %MON dynstat_salt_min             =   3.0000000000000E+01
(PID.TID 0000.0001) %MON dynstat_salt_mean            =   2.9999999999998E+01
(PID.TID 0000.0001) %MON dynstat_salt_sd              =   2.1529444893531E-12
(PID.TID 0000.0001) %MON dynstat_salt_del2            =   0.0000000000000E+00
(PID.TID 0000.0001) %MON trAdv_CFL_u_max              =   3.1624894496758E-02
(PID.TID 0000.0001) %MON trAdv_CFL_v_max              =   3.8199589597938E-02
(PID.TID 0000.0001) %MON trAdv_CFL_w_max              =   1.1255566861287E-09
(PID.TID 0000.0001) %MON advcfl_uvel_max              =   3.1625198103645E-02
(PID.TID 0000.0001) %MON advcfl_vvel_max              =   3.8200643252876E-02
(PID.TID 0000.0001) %MON advcfl_wvel_max              =   3.4172677807510E-09
(PID.TID 0000.0001) %MON advcfl_W_hf_max              =   0.0000000000000E+00
(PID.TID 0000.0001) %MON pe_b_mean                    =   1.4997669433876E-05
(PID.TID 0000.0001) %MON ke_max                       =   1.2678742544523E-02
(PID.TID 0000.0001) %MON ke_mean                      =   2.4412865922550E-03
(PID.TID 0000.0001) %MON ke_vol                       =   7.2529629296391E+15
(PID.TID 0000.0001) %MON vort_r_min                   =  -4.3719081306609E-06
(PID.TID 0000.0001) %MON vort_r_max                   =   3.4615415672026E-06
(PID.TID 0000.0001) %MON vort_a_mean                  =   1.0615000000000E-04
(PID.TID 0000.0001) %MON vort_a_sd                    =   3.6435021570057E-06
(PID.TID 0000.0001) %MON vort_p_mean                  =   1.1210870169429E-04
(PID.TID 0000.0001) %MON vort_p_sd                    =   2.1071004691645E-05
(PID.TID 0000.0001) %MON surfExpan_theta_mean         =   4.8167461456025E-21
(PID.TID 0000.0001) %MON surfExpan_salt_mean          =   7.2407118014081E-21
(PID.TID 0000.0001) // =======================================================
(PID.TID 0000.0001) // End MONITOR dynamic field statistics
(PID.TID 0000.0001) // =======================================================
 cg2d: Sum(rhs),rhsMax =   3.72772203281763E-03  1.33266181244569E-02
 cg2d: Sum(rhs),rhsMax =   3.72875327297139E-03  1.33268946670222E-02
 cg2d: Sum(rhs),rhsMax =   3.72977921242278E-03  1.33271711300807E-02
 cg2d: Sum(rhs),rhsMax =   3.73080009684739E-03  1.33274475117361E-02
 cg2d: Sum(rhs),rhsMax =   3.73181552332590E-03  1.33277238162610E-02
 cg2d: Sum(rhs),rhsMax =   3.73282574223595E-03  1.33280000382543E-02
 cg2d: Sum(rhs),rhsMax =   3.73383059856336E-03  1.33282761821975E-02
 cg2d: Sum(rhs),rhsMax =   3.73482988963768E-03  1.33285522436005E-02
 cg2d: Sum(rhs),rhsMax =   3.73582375786697E-03  1.33288282246771E-02
 cg2d: Sum(rhs),rhsMax =   3.73681224090223E-03  1.33291041215551E-02
 cg2d: Sum(rhs),rhsMax =   3.73779518514503E-03  1.33293799392119E-02
 cg2d: Sum(rhs),rhsMax =   3.73877258947384E-03  1.33296556729833E-02
 cg2d: Sum(rhs),rhsMax =   3.73978389224361E-03  1.33299313209689E-02
 cg2d: Sum(rhs),rhsMax =   3.74078920327891E-03  1.33302068887656E-02
 cg2d: Sum(rhs),rhsMax =   3.74178869679487E-03  1.33304823740617E-02
 cg2d: Sum(rhs),rhsMax =   3.74278203371994E-03  1.33307577754771E-02
 cg2d: Sum(rhs),rhsMax =   3.74380926590667E-03  1.33310330930423E-02
 cg2d: Sum(rhs),rhsMax =   3.74482996965807E-03  1.33313083240401E-02
 cg2d: Sum(rhs),rhsMax =   3.74584440805854E-03  1.33315834698638E-02
 cg2d: Sum(rhs),rhsMax =   3.74685201793910E-03  1.33318585305760E-02
 cg2d: Sum(rhs),rhsMax =   3.74785329408252E-03  1.33321335044143E-02
 cg2d: Sum(rhs),rhsMax =   3.74884773727828E-03  1.33324083915057E-02
 cg2d: Sum(rhs),rhsMax =   3.74987637158176E-03  1.33326831917159E-02
 cg2d: Sum(rhs),rhsMax =   3.75089788202989E-03  1.33329579058178E-02
 cg2d: Sum(rhs),rhsMax =   3.75191239662613E-03  1.33332325324584E-02
 cg2d: Sum(rhs),rhsMax =   3.75291973205044E-03  1.33335070698935E-02
 cg2d: Sum(rhs),rhsMax =   3.75391971484691E-03  1.33337815203147E-02
 cg2d: Sum(rhs),rhsMax =   3.75491256351479E-03  1.33340558797379E-02
 cg2d: Sum(rhs),rhsMax =   3.75589797373002E-03  1.33343301505903E-02
 cg2d: Sum(rhs),rhsMax =   3.75687615684372E-03  1.33346043326412E-02
 cg2d: Sum(rhs),rhsMax =   3.75784681827251E-03  1.33348784252541E-02
 cg2d: Sum(rhs),rhsMax =   3.75881012643002E-03  1.33351524264405E-02
 cg2d: Sum(rhs),rhsMax =   3.75980511887565E-03  1.33354263370649E-02
 cg2d: Sum(rhs),rhsMax =   3.76079218509211E-03  1.33357001572458E-02
 cg2d: Sum(rhs),rhsMax =   3.76177142805758E-03  1.33359738847180E-02
 cg2d: Sum(rhs),rhsMax =   3.76274260752594E-03  1.33362475207334E-02
 cg2d: Sum(rhs),rhsMax =   3.76370567513141E-03  1.33365210645854E-02
 cg2d: Sum(rhs),rhsMax =   3.76466049474896E-03  1.33367945144010E-02
 cg2d: Sum(rhs),rhsMax =   3.76564655591487E-03  1.33370678744426E-02
 cg2d: Sum(rhs),rhsMax =   3.76662411880251E-03  1.33373411382705E-02
 cg2d: Sum(rhs),rhsMax =   3.76759302505961E-03  1.33376143077617E-02
 cg2d: Sum(rhs),rhsMax =   3.76855334734042E-03  1.33378873838360E-02
 cg2d: Sum(rhs),rhsMax =   3.76950487599594E-03  1.33381603631323E-02
 cg2d: Sum(rhs),rhsMax =   3.77044770629629E-03  1.33384332500413E-02
 cg2d: Sum(rhs),rhsMax =   3.77138169852540E-03  1.33387060389558E-02
 cg2d: Sum(rhs),rhsMax =   3.77234653618768E-03  1.33389787311989E-02
 cg2d: Sum(rhs),rhsMax =   3.77330211334250E-03  1.33392513279889E-02
 cg2d: Sum(rhs),rhsMax =   3.77424848243963E-03  1.33395238301191E-02
 cg2d: Sum(rhs),rhsMax =   3.77518529044290E-03  1.33397962330291E-02
 cg2d: Sum(rhs),rhsMax =   3.77611276861828E-03  1.33400685406485E-02
 cg2d: Sum(rhs),rhsMax =   3.77703071392871E-03  1.33403407496038E-02
 cg2d: Sum(rhs),rhsMax =   3.77793897992557E-03  1.33406128614439E-02
 cg2d: Sum(rhs),rhsMax =   3.77883783454984E-03  1.33408848724140E-02
 cg2d: Sum(rhs),rhsMax =   3.77972702316911E-03  1.33411567854465E-02
 cg2d: Sum(rhs),rhsMax =   3.78060650735980E-03  1.33414285985983E-02
 cg2d: Sum(rhs),rhsMax =   3.78147629902147E-03  1.33417003116742E-02
 cg2d: Sum(rhs),rhsMax =   3.78233615000523E-03  1.33419719235332E-02
 cg2d: Sum(rhs),rhsMax =   3.78322346914666E-03  1.33422434389765E-02
 cg2d: Sum(rhs),rhsMax =   3.78410059278554E-03  1.33425148495642E-02
 cg2d: Sum(rhs),rhsMax =   3.78496732652428E-03  1.33427861596209E-02
 cg2d: Sum(rhs),rhsMax =   3.78582379877906E-03  1.33430573680778E-02
 cg2d: Sum(rhs),rhsMax =   3.78666985826358E-03  1.33433284755737E-02
 cg2d: Sum(rhs),rhsMax =   3.78750549388821E-03  1.33435994783332E-02
 cg2d: Sum(rhs),rhsMax =   3.78836647270304E-03  1.33438703754915E-02
 cg2d: Sum(rhs),rhsMax =   3.78921706805246E-03  1.33441411725978E-02
 cg2d: Sum(rhs),rhsMax =   3.79005681656581E-03  1.33444118666041E-02
 cg2d: Sum(rhs),rhsMax =   3.79088559177997E-03  1.33446824566488E-02
 cg2d: Sum(rhs),rhsMax =   3.79170341516804E-03  1.33449529419704E-02
 cg2d: Sum(rhs),rhsMax =   3.79254681186895E-03  1.33452233257187E-02
 cg2d: Sum(rhs),rhsMax =   3.79337870556364E-03  1.33454936018326E-02
 cg2d: Sum(rhs),rhsMax =   3.79419933205107E-03  1.33457637703583E-02
 cg2d: Sum(rhs),rhsMax =   3.79500802232202E-03  1.33460338342860E-02
(PID.TID 0000.0001)      cg2d_init_res =   1.41933736725998E-03
(PID.TID 0000.0001)      cg2d_iters(min,last) =      -1     326
(PID.TID 0000.0001)      cg2d_last_res =   9.78882409527347E-08
(PID.TID 0000.0001) // =======================================================
(PID.TID 0000.0001) // Begin MONITOR dynamic field statistics
(PID.TID 0000.0001) // =======================================================
(PID.TID 0000.0001) %MON time_tsnumber                =                 18576
(PID.TID 0000.0001) %MON time_secondsf                =   2.2291200000000E+07
(PID.TID 0000.0001) %MON dynstat_eta_max              =   1.3544415529978E-01
(PID.TID 0000.0001) %MON dynstat_eta_min              =  -3.4728443215365E-01
(PID.TID 0000.0001) %MON dynstat_eta_mean             =  -2.4107995699499E-07
(PID.TID 0000.0001) %MON dynstat_eta_sd               =   1.2120829747428E-01
(PID.TID 0000.0001) %MON dynstat_eta_del2             =   7.3340804719935E-07
(PID.TID 0000.0001) %MON dynstat_uvel_max             =   1.3123706299423E-01
(PID.TID 0000.0001) %MON dynstat_uvel_min             =  -1.3186299473458E-01
(PID.TID 0000.0001) %MON dynstat_uvel_mean            =   5.1877694867353E-08
(PID.TID 0000.0001) %MON dynstat_uvel_sd              =   5.0688147619005E-02
(PID.TID 0000.0001) %MON dynstat_uvel_del2            =   1.1011960078628E-06
(PID.TID 0000.0001) %MON dynstat_vvel_max             =   1.5948065300035E-01
(PID.TID 0000.0001) %MON dynstat_vvel_min             =  -1.2417309778803E-01
(PID.TID 0000.0001) %MON dynstat_vvel_mean            =  -6.8960146407127E-08
(PID.TID 0000.0001) %MON dynstat_vvel_sd              =   4.8447817238290E-02
(PID.TID 0000.0001) %MON dynstat_vvel_del2            =   1.2839003412148E-06
(PID.TID 0000.0001) %MON dynstat_wvel_max             =   4.2695830529556E-09
(PID.TID 0000.0001) %MON dynstat_wvel_min             =  -7.2685114014894E-09
(PID.TID 0000.0001) %MON dynstat_wvel_mean            =   4.9292438704007E-22
(PID.TID 0000.0001) %MON dynstat_wvel_sd              =   2.3378748607179E-09
(PID.TID 0000.0001) %MON dynstat_wvel_del2            =   2.4642513854402E-14
(PID.TID 0000.0001) %MON dynstat_theta_max            =   2.0000000000000E+01
(PID.TID 0000.0001) %MON dynstat_theta_min            =   2.0000000000000E+01
(PID.TID 0000.0001) %MON dynstat_theta_mean           =   1.9999999999999E+01
(PID.TID 0000.0001) %MON dynstat_theta_sd             =   1.1972645097557E-12
(PID.TID 0000.0001) %MON dynstat_theta_del2           =   0.0000000000000E+00
(PID.TID 0000.0001) %MON dynstat_salt_max             =   3.0000000000000E+01
(PID.TID 0000.0001) %MON dynstat_salt_min             =   3.0000000000000E+01
(PID.TID 0000.0001) %MON dynstat_salt_mean            =   2.9999999999998E+01
(PID.TID 0000.0001) %MON dynstat_salt_sd              =   2.1529444893531E-12
(PID.TID 0000.0001) %MON dynstat_salt_del2            =   0.0000000000000E+00
(PID.TID 0000.0001) %MON trAdv_CFL_u_max              =   3.1646813887526E-02
(PID.TID 0000.0001) %MON trAdv_CFL_v_max              =   3.8274334007003E-02
(PID.TID 0000.0001) %MON trAdv_CFL_w_max              =   1.0966247878077E-09
(PID.TID 0000.0001) %MON advcfl_uvel_max              =   3.1647118736299E-02
(PID.TID 0000.0001) %MON advcfl_vvel_max              =   3.8275356720083E-02
(PID.TID 0000.0001) %MON advcfl_wvel_max              =   3.4888854727149E-09
(PID.TID 0000.0001) %MON advcfl_W_hf_max              =   0.0000000000000E+00
(PID.TID 0000.0001) %MON pe_b_mean                    =   1.5031367015332E-05
(PID.TID 0000.0001) %MON ke_max                       =   1.2727930035878E-02
(PID.TID 0000.0001) %MON ke_mean                      =   2.4471741798961E-03
(PID.TID 0000.0001) %MON ke_vol                       =   7.2529629296391E+15
(PID.TID 0000.0001) %MON vort_r_min                   =  -4.3779784632188E-06
(PID.TID 0000.0001) %MON vort_r_max                   =   3.4565731117464E-06
(PID.TID 0000.0001) %MON vort_a_mean                  =   1.0615000000000E-04
(PID.TID 0000.0001) %MON vort_a_sd                    =   3.6436488176112E-06
(PID.TID 0000.0001) %MON vort_p_mean                  =   1.1210870169429E-04
(PID.TID 0000.0001) %MON vort_p_sd                    =   2.1071034284307E-05
(PID.TID 0000.0001) %MON surfExpan_theta_mean         =   9.7645991438728E-21
(PID.TID 0000.0001) %MON surfExpan_salt_mean          =   1.4623755236623E-20
(PID.TID 0000.0001) // =======================================================
(PID.TID 0000.0001) // End MONITOR dynamic field statistics
(PID.TID 0000.0001) // =======================================================
 cg2d: Sum(rhs),rhsMax =   3.79580552486962E-03  1.33463037905320E-02
 cg2d: Sum(rhs),rhsMax =   3.79659141092947E-03  1.33465736429777E-02
 cg2d: Sum(rhs),rhsMax =   3.79736567583825E-03  1.33468433848007E-02
 cg2d: Sum(rhs),rhsMax =   3.79812821600429E-03  1.33471130216735E-02
 cg2d: Sum(rhs),rhsMax =   3.79891393101350E-03  1.33473825469796E-02
 cg2d: Sum(rhs),rhsMax =   3.79972282605683E-03  1.33476519671743E-02
 cg2d: Sum(rhs),rhsMax =   3.80051936522438E-03  1.33479212789799E-02
 cg2d: Sum(rhs),rhsMax =   3.80130367091227E-03  1.33481904789830E-02
 cg2d: Sum(rhs),rhsMax =   3.80211185141735E-03  1.33484595697914E-02
 cg2d: Sum(rhs),rhsMax =   3.80290719507200E-03  1.33487285511089E-02
 cg2d: Sum(rhs),rhsMax =   3.80368990490816E-03  1.33489974240222E-02
 cg2d: Sum(rhs),rhsMax =   3.80445983397921E-03  1.33492661847158E-02
 cg2d: Sum(rhs),rhsMax =   3.80521707134243E-03  1.33495348366195E-02
 cg2d: Sum(rhs),rhsMax =   3.80596155152288E-03  1.33498033749553E-02
 cg2d: Sum(rhs),rhsMax =   3.80669314301791E-03  1.33500718039685E-02
 cg2d: Sum(rhs),rhsMax =   3.80741207643472E-03  1.33503401185129E-02
 cg2d: Sum(rhs),rhsMax =   3.80811811595932E-03  1.33506083230119E-02
 cg2d: Sum(rhs),rhsMax =   3.80881144273493E-03  1.33508764138438E-02
 cg2d: Sum(rhs),rhsMax =   3.80949218927523E-03  1.33511443916365E-02
 cg2d: Sum(rhs),rhsMax =   3.81019407894763E-03  1.33514122538707E-02
 cg2d: Sum(rhs),rhsMax =   3.81088296765235E-03  1.33516800030087E-02
 cg2d: Sum(rhs),rhsMax =   3.81155906572755E-03  1.33519476388440E-02
 cg2d: Sum(rhs),rhsMax =   3.81222208869012E-03  1.33522151592902E-02
 cg2d: Sum(rhs),rhsMax =   3.81287237376733E-03  1.33524825654874E-02
 cg2d: Sum(rhs),rhsMax =   3.81350976167571E-03  1.33527498546265E-02
 cg2d: Sum(rhs),rhsMax =   3.81413440514871E-03  1.33530170290724E-02
 cg2d: Sum(rhs),rhsMax =   3.81477988470831E-03  1.33532840908412E-02
 cg2d: Sum(rhs),rhsMax =   3.81541241832077E-03  1.33535510315606E-02
 cg2d: Sum(rhs),rhsMax =   3.81603207700463E-03  1.33538178570588E-02
 cg2d: Sum(rhs),rhsMax =   3.81663892759463E-03  1.33540845634304E-02
 cg2d: Sum(rhs),rhsMax =   3.81723301439173E-03  1.33543511544537E-02
 cg2d: Sum(rhs),rhsMax =   3.81781445702191E-03  1.33546176248469E-02
 cg2d: Sum(rhs),rhsMax =   3.81838319717629E-03  1.33548839788870E-02
 cg2d: Sum(rhs),rhsMax =   3.81893947646640E-03  1.33551502123209E-02
 cg2d: Sum(rhs),rhsMax =   3.81948313796756E-03  1.33554163291675E-02
 cg2d: Sum(rhs),rhsMax =   3.82001462608086E-03  1.33556823235221E-02
 cg2d: Sum(rhs),rhsMax =   3.82053395908141E-03  1.33559482011944E-02
 cg2d: Sum(rhs),rhsMax =   3.82104111871210E-03  1.33562139564313E-02
 cg2d: Sum(rhs),rhsMax =   3.82153639766368E-03  1.33564795924374E-02
 cg2d: Sum(rhs),rhsMax =   3.82201972259442E-03  1.33567451050984E-02
 cg2d: Sum(rhs),rhsMax =   3.82249141294549E-03  1.33570104992368E-02
 cg2d: Sum(rhs),rhsMax =   3.82298437697146E-03  1.33572757677144E-02
 cg2d: Sum(rhs),rhsMax =   3.82346562730025E-03  1.33575409171231E-02
 cg2d: Sum(rhs),rhsMax =   3.82393550763754E-03  1.33578059431347E-02
 cg2d: Sum(rhs),rhsMax =   3.82439390723786E-03  1.33580708458917E-02
 cg2d: Sum(rhs),rhsMax =   3.82484125058476E-03  1.33583356274523E-02
 cg2d: Sum(rhs),rhsMax =   3.82527723607905E-03  1.33586002858564E-02
 cg2d: Sum(rhs),rhsMax =   3.82570267945728E-03  1.33588648187671E-02
 cg2d: Sum(rhs),rhsMax =   3.82611736347103E-03  1.33591292271633E-02
 cg2d: Sum(rhs),rhsMax =   3.82652181083317E-03  1.33593935123885E-02
 cg2d: Sum(rhs),rhsMax =   3.82691584237502E-03  1.33596576724950E-02
 cg2d: Sum(rhs),rhsMax =   3.82730001988064E-03  1.33599217065951E-02
 cg2d: Sum(rhs),rhsMax =   3.82767430079601E-03  1.33601856145916E-02
 cg2d: Sum(rhs),rhsMax =   3.82803913807250E-03  1.33604493977413E-02
 cg2d: Sum(rhs),rhsMax =   3.82839452875035E-03  1.33607130550470E-02
 cg2d: Sum(rhs),rhsMax =   3.82874098469337E-03  1.33609765845680E-02
 cg2d: Sum(rhs),rhsMax =   3.82907853589586E-03  1.33612399871248E-02
 cg2d: Sum(rhs),rhsMax =   3.82940765157119E-03  1.33615032618827E-02
 cg2d: Sum(rhs),rhsMax =   3.82972839826343E-03  1.33617664096551E-02
 cg2d: Sum(rhs),rhsMax =   3.83004129016599E-03  1.33620294279026E-02
 cg2d: Sum(rhs),rhsMax =   3.83034631507127E-03  1.33622923174311E-02
 cg2d: Sum(rhs),rhsMax =   3.83064406901487E-03  1.33625550792965E-02
 cg2d: Sum(rhs),rhsMax =   3.83093469385562E-03  1.33628177119754E-02
 cg2d: Sum(rhs),rhsMax =   3.83121856839889E-03  1.33630802145462E-02
 cg2d: Sum(rhs),rhsMax =   3.83149598620857E-03  1.33633425875415E-02
 cg2d: Sum(rhs),rhsMax =   3.83176732295313E-03  1.33636048301402E-02
 cg2d: Sum(rhs),rhsMax =   3.83203274074271E-03  1.33638669429477E-02
 cg2d: Sum(rhs),rhsMax =   3.83229281162752E-03  1.33641289235236E-02
 cg2d: Sum(rhs),rhsMax =   3.83257853002686E-03  1.33643907769755E-02
 cg2d: Sum(rhs),rhsMax =   3.83285943258558E-03  1.33646524939903E-02
 cg2d: Sum(rhs),rhsMax =   3.83313613732468E-03  1.33649140794772E-02
 cg2d: Sum(rhs),rhsMax =   3.83340856623125E-03  1.33651755335963E-02
(PID.TID 0000.0001)      cg2d_init_res =   1.39820303330074E-03
(PID.TID 0000.0001)      cg2d_iters(min,last) =      -1     319
(PID.TID 0000.0001)      cg2d_last_res =   9.90987513260330E-08
(PID.TID 0000.0001) // =======================================================
(PID.TID 0000.0001) // Begin MONITOR dynamic field statistics
(PID.TID 0000.0001) // =======================================================
(PID.TID 0000.0001) %MON time_tsnumber                =                 18648
(PID.TID 0000.0001) %MON time_secondsf                =   2.2377600000000E+07
(PID.TID 0000.0001) %MON dynstat_eta_max              =   1.3538913533761E-01
(PID.TID 0000.0001) %MON dynstat_eta_min              =  -3.4779265351065E-01
(PID.TID 0000.0001) %MON dynstat_eta_mean             =  -2.4383434971363E-07
(PID.TID 0000.0001) %MON dynstat_eta_sd               =   1.2134540792938E-01
(PID.TID 0000.0001) %MON dynstat_eta_del2             =   7.3407226631254E-07
(PID.TID 0000.0001) %MON dynstat_uvel_max             =   1.3145652330681E-01
(PID.TID 0000.0001) %MON dynstat_uvel_min             =  -1.3195429583924E-01
(PID.TID 0000.0001) %MON dynstat_uvel_mean            =   4.0671100761307E-08
(PID.TID 0000.0001) %MON dynstat_uvel_sd              =   5.0757895815953E-02
(PID.TID 0000.0001) %MON dynstat_uvel_del2            =   1.1026960550275E-06
(PID.TID 0000.0001) %MON dynstat_vvel_max             =   1.5978322880637E-01
(PID.TID 0000.0001) %MON dynstat_vvel_min             =  -1.2429238494885E-01
(PID.TID 0000.0001) %MON dynstat_vvel_mean            =  -7.6373768160673E-08
(PID.TID 0000.0001) %MON dynstat_vvel_sd              =   4.8497070662005E-02
(PID.TID 0000.0001) %MON dynstat_vvel_del2            =   1.2834986526287E-06
(PID.TID 0000.0001) %MON dynstat_wvel_max             =   4.3825447186828E-09
(PID.TID 0000.0001) %MON dynstat_wvel_min             =  -7.4024533107877E-09
(PID.TID 0000.0001) %MON dynstat_wvel_mean            =   4.4721068533141E-21
(PID.TID 0000.0001) %MON dynstat_wvel_sd              =   2.3187193566383E-09
(PID.TID 0000.0001) %MON dynstat_wvel_del2            =   2.4609515073710E-14
(PID.TID 0000.0001) %MON dynstat_theta_max            =   2.0000000000000E+01
(PID.TID 0000.0001) %MON dynstat_theta_min            =   2.0000000000000E+01
(PID.TID 0000.0001) %MON dynstat_theta_mean           =   1.9999999999999E+01
(PID.TID 0000.0001) %MON dynstat_theta_sd             =   1.1972645097557E-12
(PID.TID 0000.0001) %MON dynstat_theta_del2           =   0.0000000000000E+00
(PID.TID 0000.0001) %MON dynstat_salt_max             =   3.0000000000000E+01
(PID.TID 0000.0001) %MON dynstat_salt_min             =   3.0000000000000E+01
(PID.TID 0000.0001) %MON dynstat_salt_mean            =   2.9999999999998E+01
(PID.TID 0000.0001) %MON dynstat_salt_sd              =   2.1529444893531E-12
(PID.TID 0000.0001) %MON dynstat_salt_del2            =   0.0000000000000E+00
(PID.TID 0000.0001) %MON trAdv_CFL_u_max              =   3.1668727624051E-02
(PID.TID 0000.0001) %MON trAdv_CFL_v_max              =   3.8346979396858E-02
(PID.TID 0000.0001) %MON trAdv_CFL_w_max              =   1.1435729238358E-09
(PID.TID 0000.0001) %MON advcfl_uvel_max              =   3.1669031001418E-02
(PID.TID 0000.0001) %MON advcfl_vvel_max              =   3.8347974913529E-02
(PID.TID 0000.0001) %MON advcfl_wvel_max              =   3.5531775891781E-09
(PID.TID 0000.0001) %MON advcfl_W_hf_max              =   0.0000000000000E+00
(PID.TID 0000.0001) %MON pe_b_mean                    =   1.5065393122284E-05
(PID.TID 0000.0001) %MON ke_max                       =   1.2775760769104E-02
(PID.TID 0000.0001) %MON ke_mean                      =   2.4530727811157E-03
(PID.TID 0000.0001) %MON ke_vol                       =   7.2529629296391E+15
(PID.TID 0000.0001) %MON vort_r_min                   =  -4.3839179117004E-06
(PID.TID 0000.0001) %MON vort_r_max                   =   3.4530464282266E-06
(PID.TID 0000.0001) %MON vort_a_mean                  =   1.0615000000000E-04
(PID.TID 0000.0001) %MON vort_a_sd                    =   3.6438009389356E-06
(PID.TID 0000.0001) %MON vort_p_mean                  =   1.1210870169429E-04
(PID.TID 0000.0001) %MON vort_p_sd                    =   2.1071062844963E-05
(PID.TID 0000.0001) %MON surfExpan_theta_mean         =   8.9261789118061E-20
(PID.TID 0000.0001) %MON surfExpan_salt_mean          =   1.3390996701752E-19
(PID.TID 0000.0001) // =======================================================
(PID.TID 0000.0001) // End MONITOR dynamic field statistics
(PID.TID 0000.0001) // =======================================================
 cg2d: Sum(rhs),rhsMax =   3.83367753112857E-03  1.33654368544024E-02
 cg2d: Sum(rhs),rhsMax =   3.83394313093485E-03  1.33656980421202E-02
 cg2d: Sum(rhs),rhsMax =   3.83420584725805E-03  1.33659590963893E-02
 cg2d: Sum(rhs),rhsMax =   3.83446622236447E-03  1.33662200172212E-02
 cg2d: Sum(rhs),rhsMax =   3.83472427233792E-03  1.33664808044091E-02
 cg2d: Sum(rhs),rhsMax =   3.83498092060631E-03  1.33667414551706E-02
 cg2d: Sum(rhs),rhsMax =   3.83523639562177E-03  1.33670019719037E-02
 cg2d: Sum(rhs),rhsMax =   3.83549113027395E-03  1.33672623539855E-02
 cg2d: Sum(rhs),rhsMax =   3.83574551759045E-03  1.33675226007310E-02
 cg2d: Sum(rhs),rhsMax =   3.83600008842882E-03  1.33677827105273E-02
 cg2d: Sum(rhs),rhsMax =   3.83625521386196E-03  1.33680426858441E-02
 cg2d: Sum(rhs),rhsMax =   3.83651134990627E-03  1.33683025232732E-02
 cg2d: Sum(rhs),rhsMax =   3.83676894045037E-03  1.33685622248673E-02
 cg2d: Sum(rhs),rhsMax =   3.83702841524282E-03  1.33688217879494E-02
 cg2d: Sum(rhs),rhsMax =   3.83729023379366E-03  1.33690812147428E-02
 cg2d: Sum(rhs),rhsMax =   3.83755497444147E-03  1.33693405030043E-02
 cg2d: Sum(rhs),rhsMax =   3.83782289839278E-03  1.33695996539324E-02
 cg2d: Sum(rhs),rhsMax =   3.83809463381845E-03  1.33698586647266E-02
 cg2d: Sum(rhs),rhsMax =   3.83837052565943E-03  1.33701175379365E-02
 cg2d: Sum(rhs),rhsMax =   3.83865110905695E-03  1.33703762711285E-02
 cg2d: Sum(rhs),rhsMax =   3.83893686795194E-03  1.33706348656438E-02
 cg2d: Sum(rhs),rhsMax =   3.83922825175074E-03  1.33708933189489E-02
 cg2d: Sum(rhs),rhsMax =   3.83952571890971E-03  1.33711516336369E-02
 cg2d: Sum(rhs),rhsMax =   3.83982953682377E-03  1.33714098063182E-02
 cg2d: Sum(rhs),rhsMax =   3.84014044488474E-03  1.33716678392392E-02
 cg2d: Sum(rhs),rhsMax =   3.84045868959949E-03  1.33719257299811E-02
 cg2d: Sum(rhs),rhsMax =   3.84078488531852E-03  1.33721834803737E-02
 cg2d: Sum(rhs),rhsMax =   3.84111937320667E-03  1.33724410876029E-02
 cg2d: Sum(rhs),rhsMax =   3.84146261558990E-03  1.33726985535563E-02
 cg2d: Sum(rhs),rhsMax =   3.84181500650962E-03  1.33729558759336E-02
 cg2d: Sum(rhs),rhsMax =   3.84217700282224E-03  1.33732130562344E-02
 cg2d: Sum(rhs),rhsMax =   3.84254885256924E-03  1.33734700921460E-02
 cg2d: Sum(rhs),rhsMax =   3.84293132848933E-03  1.33737269855437E-02
 cg2d: Sum(rhs),rhsMax =   3.84332463797858E-03  1.33739837341669E-02
 cg2d: Sum(rhs),rhsMax =   3.84372920977655E-03  1.33742403400062E-02
 cg2d: Sum(rhs),rhsMax =   3.84414551970622E-03  1.33744968000792E-02
 cg2d: Sum(rhs),rhsMax =   3.84457378629052E-03  1.33747531163888E-02
 cg2d: Sum(rhs),rhsMax =   3.84501452340329E-03  1.33750092863406E-02
 cg2d: Sum(rhs),rhsMax =   3.84546778201570E-03  1.33752653112435E-02
 cg2d: Sum(rhs),rhsMax =   3.84593439072078E-03  1.33755211901378E-02
 cg2d: Sum(rhs),rhsMax =   3.84641445673881E-03  1.33757769240098E-02
 cg2d: Sum(rhs),rhsMax =   3.84690839725192E-03  1.33760325100335E-02
 cg2d: Sum(rhs),rhsMax =   3.84741654037758E-03  1.33762879503734E-02
 cg2d: Sum(rhs),rhsMax =   3.84793896876219E-03  1.33765432427505E-02
 cg2d: Sum(rhs),rhsMax =   3.84847627614304E-03  1.33767983882135E-02
 cg2d: Sum(rhs),rhsMax =   3.84902859499219E-03  1.33770533842852E-02
 cg2d: Sum(rhs),rhsMax =   3.84959648085003E-03  1.33773082343389E-02
 cg2d: Sum(rhs),rhsMax =   3.85017971567813E-03  1.33775629349630E-02
 cg2d: Sum(rhs),rhsMax =   3.85077907004125E-03  1.33778174877656E-02
 cg2d: Sum(rhs),rhsMax =   3.85139444634580E-03  1.33780718901008E-02
 cg2d: Sum(rhs),rhsMax =   3.85202639991002E-03  1.33783261444869E-02
 cg2d: Sum(rhs),rhsMax =   3.85267484864103E-03  1.33785802476369E-02
 cg2d: Sum(rhs),rhsMax =   3.85334018934949E-03  1.33788342027105E-02
 cg2d: Sum(rhs),rhsMax =   3.85398478123304E-03  1.33790880035971E-02
 cg2d: Sum(rhs),rhsMax =   3.85464616016690E-03  1.33793416567589E-02
 cg2d: Sum(rhs),rhsMax =   3.85532473731538E-03  1.33795951582378E-02
 cg2d: Sum(rhs),rhsMax =   3.85602019797888E-03  1.33798485087132E-02
 cg2d: Sum(rhs),rhsMax =   3.85673335731772E-03  1.33801017082744E-02
 cg2d: Sum(rhs),rhsMax =   3.85746405068870E-03  1.33803547561439E-02
 cg2d: Sum(rhs),rhsMax =   3.85821241015043E-03  1.33806076512445E-02
 cg2d: Sum(rhs),rhsMax =   3.85897845396932E-03  1.33808603947075E-02
 cg2d: Sum(rhs),rhsMax =   3.85976227412304E-03  1.33811129842141E-02
 cg2d: Sum(rhs),rhsMax =   3.86056411759992E-03  1.33813654222191E-02
 cg2d: Sum(rhs),rhsMax =   3.86138396830786E-03  1.33816177051758E-02
 cg2d: Sum(rhs),rhsMax =   3.86222186888878E-03  1.33818698357346E-02
 cg2d: Sum(rhs),rhsMax =   3.86307801947553E-03  1.33821218107883E-02
 cg2d: Sum(rhs),rhsMax =   3.86395230391882E-03  1.33823736332261E-02
 cg2d: Sum(rhs),rhsMax =   3.86484479204886E-03  1.33826252991654E-02
 cg2d: Sum(rhs),rhsMax =   3.86575551640001E-03  1.33828768118833E-02
 cg2d: Sum(rhs),rhsMax =   3.86668445455683E-03  1.33831281675692E-02
 cg2d: Sum(rhs),rhsMax =   3.86763163051062E-03  1.33833793694892E-02
 cg2d: Sum(rhs),rhsMax =   3.86859698414438E-03  1.33836304137768E-02
(PID.TID 0000.0001)      cg2d_init_res =   1.37765624203179E-03
(PID.TID 0000.0001)      cg2d_iters(min,last) =      -1     320
(PID.TID 0000.0001)      cg2d_last_res =   9.72362766296885E-08
(PID.TID 0000.0001) // =======================================================
(PID.TID 0000.0001) // Begin MONITOR dynamic field statistics
(PID.TID 0000.0001) // =======================================================
(PID.TID 0000.0001) %MON time_tsnumber                =                 18720
(PID.TID 0000.0001) %MON time_secondsf                =   2.2464000000000E+07
(PID.TID 0000.0001) %MON dynstat_eta_max              =   1.3535848098734E-01
(PID.TID 0000.0001) %MON dynstat_eta_min              =  -3.4830959486593E-01
(PID.TID 0000.0001) %MON dynstat_eta_mean             =  -2.4645754605374E-07
(PID.TID 0000.0001) %MON dynstat_eta_sd               =   1.2148361758576E-01
(PID.TID 0000.0001) %MON dynstat_eta_del2             =   7.3475632369776E-07
(PID.TID 0000.0001) %MON dynstat_uvel_max             =   1.3167970824400E-01
(PID.TID 0000.0001) %MON dynstat_uvel_min             =  -1.3204472178384E-01
(PID.TID 0000.0001) %MON dynstat_uvel_mean            =   2.8182975631400E-08
(PID.TID 0000.0001) %MON dynstat_uvel_sd              =   5.0829319277067E-02
(PID.TID 0000.0001) %MON dynstat_uvel_del2            =   1.1041878800292E-06
(PID.TID 0000.0001) %MON dynstat_vvel_max             =   1.6007829389444E-01
(PID.TID 0000.0001) %MON dynstat_vvel_min             =  -1.2439225928755E-01
(PID.TID 0000.0001) %MON dynstat_vvel_mean            =  -8.1699694420732E-08
(PID.TID 0000.0001) %MON dynstat_vvel_sd              =   4.8544766729970E-02
(PID.TID 0000.0001) %MON dynstat_vvel_del2            =   1.2835209293682E-06
(PID.TID 0000.0001) %MON dynstat_wvel_max             =   4.7511375416070E-09
(PID.TID 0000.0001) %MON dynstat_wvel_min             =  -7.5207833666354E-09
(PID.TID 0000.0001) %MON dynstat_wvel_mean            =   1.1719959561429E-20
(PID.TID 0000.0001) %MON dynstat_wvel_sd              =   2.3012190797677E-09
(PID.TID 0000.0001) %MON dynstat_wvel_del2            =   2.4020111974501E-14
(PID.TID 0000.0001) %MON dynstat_theta_max            =   2.0000000000000E+01
(PID.TID 0000.0001) %MON dynstat_theta_min            =   2.0000000000000E+01
(PID.TID 0000.0001) %MON dynstat_theta_mean           =   1.9999999999999E+01
(PID.TID 0000.0001) %MON dynstat_theta_sd             =   1.1972645097557E-12
(PID.TID 0000.0001) %MON dynstat_theta_del2           =   0.0000000000000E+00
(PID.TID 0000.0001) %MON dynstat_salt_max             =   3.0000000000000E+01
(PID.TID 0000.0001) %MON dynstat_salt_min             =   3.0000000000000E+01
(PID.TID 0000.0001) %MON dynstat_salt_mean            =   2.9999999999998E+01
(PID.TID 0000.0001) %MON dynstat_salt_sd              =   2.1529444893531E-12
(PID.TID 0000.0001) %MON dynstat_salt_del2            =   0.0000000000000E+00
(PID.TID 0000.0001) %MON trAdv_CFL_u_max              =   3.1690434190817E-02
(PID.TID 0000.0001) %MON trAdv_CFL_v_max              =   3.8417817869933E-02
(PID.TID 0000.0001) %MON trAdv_CFL_w_max              =   1.2378948888898E-09
(PID.TID 0000.0001) %MON advcfl_uvel_max              =   3.1690733228121E-02
(PID.TID 0000.0001) %MON advcfl_vvel_max              =   3.8418790534666E-02
(PID.TID 0000.0001) %MON advcfl_wvel_max              =   3.6099760159850E-09
(PID.TID 0000.0001) %MON advcfl_W_hf_max              =   0.0000000000000E+00
(PID.TID 0000.0001) %MON pe_b_mean                    =   1.5099730945556E-05
(PID.TID 0000.0001) %MON ke_max                       =   1.2822410767274E-02
(PID.TID 0000.0001) %MON ke_mean                      =   2.4589881456962E-03
(PID.TID 0000.0001) %MON ke_vol                       =   7.2529629296391E+15
(PID.TID 0000.0001) %MON vort_r_min                   =  -4.3896793331604E-06
(PID.TID 0000.0001) %MON vort_r_max                   =   3.4511404253218E-06
(PID.TID 0000.0001) %MON vort_a_mean                  =   1.0615000000000E-04
(PID.TID 0000.0001) %MON vort_a_sd                    =   3.6439586664704E-06
(PID.TID 0000.0001) %MON vort_p_mean                  =   1.1210870169429E-04
(PID.TID 0000.0001) %MON vort_p_sd                    =   2.1071091662913E-05
(PID.TID 0000.0001) %MON surfExpan_theta_mean         =   2.3414886880042E-19
(PID.TID 0000.0001) %MON surfExpan_salt_mean          =   3.5120053427220E-19
(PID.TID 0000.0001) // =======================================================
(PID.TID 0000.0001) // End MONITOR dynamic field statistics
(PID.TID 0000.0001) // =======================================================
 cg2d: Sum(rhs),rhsMax =   3.86958060018500E-03  1.33838813037073E-02
 cg2d: Sum(rhs),rhsMax =   3.87058214725983E-03  1.33841320354246E-02
 cg2d: Sum(rhs),rhsMax =   3.87160198245446E-03  1.33843826121034E-02
 cg2d: Sum(rhs),rhsMax =   3.87263989541928E-03  1.33846330300530E-02
 cg2d: Sum(rhs),rhsMax =   3.87369590966814E-03  1.33848832923788E-02
 cg2d: Sum(rhs),rhsMax =   3.87476964651426E-03  1.33851333955165E-02
 cg2d: Sum(rhs),rhsMax =   3.87586118693029E-03  1.33853833416261E-02
 cg2d: Sum(rhs),rhsMax =   3.87697077728151E-03  1.33856331285200E-02
 cg2d: Sum(rhs),rhsMax =   3.87809817542271E-03  1.33858827584584E-02
 cg2d: Sum(rhs),rhsMax =   3.87924315827786E-03  1.33861322276656E-02
 cg2d: Sum(rhs),rhsMax =   3.88040541413106E-03  1.33863815392765E-02
 cg2d: Sum(rhs),rhsMax =   3.88158530558396E-03  1.33866306906008E-02
 cg2d: Sum(rhs),rhsMax =   3.88278245379193E-03  1.33868796832035E-02
 cg2d: Sum(rhs),rhsMax =   3.88399688270697E-03  1.33871285144238E-02
 cg2d: Sum(rhs),rhsMax =   3.88522807143335E-03  1.33873771865152E-02
 cg2d: Sum(rhs),rhsMax =   3.88647645610739E-03  1.33876256967141E-02
 cg2d: Sum(rhs),rhsMax =   3.88769306664744E-03  1.33878740488480E-02
 cg2d: Sum(rhs),rhsMax =   3.88892604886564E-03  1.33881222380306E-02
 cg2d: Sum(rhs),rhsMax =   3.89017534904188E-03  1.33883702654601E-02
 cg2d: Sum(rhs),rhsMax =   3.89144051385586E-03  1.33886181311564E-02
 cg2d: Sum(rhs),rhsMax =   3.89272169423264E-03  1.33888658348003E-02
 cg2d: Sum(rhs),rhsMax =   3.89401826847358E-03  1.33891133761910E-02
 cg2d: Sum(rhs),rhsMax =   3.89533069251872E-03  1.33893607548665E-02
 cg2d: Sum(rhs),rhsMax =   3.89665836715978E-03  1.33896079713365E-02
 cg2d: Sum(rhs),rhsMax =   3.89800131528489E-03  1.33898550239442E-02
 cg2d: Sum(rhs),rhsMax =   3.89935939315421E-03  1.33901019134734E-02
 cg2d: Sum(rhs),rhsMax =   3.90073214287178E-03  1.33903486390113E-02
 cg2d: Sum(rhs),rhsMax =   3.90211976409145E-03  1.33905952003150E-02
 cg2d: Sum(rhs),rhsMax =   3.90352180029488E-03  1.33908415969934E-02
 cg2d: Sum(rhs),rhsMax =   3.90493832629632E-03  1.33910878297378E-02
 cg2d: Sum(rhs),rhsMax =   3.90636916398261E-03  1.33913338978740E-02
 cg2d: Sum(rhs),rhsMax =   3.90781390837093E-03  1.33915798002948E-02
 cg2d: Sum(rhs),rhsMax =   3.90927263933294E-03  1.33918255373514E-02
 cg2d: Sum(rhs),rhsMax =   3.91074495654280E-03  1.33920711085348E-02
 cg2d: Sum(rhs),rhsMax =   3.91223082477762E-03  1.33923165141523E-02
 cg2d: Sum(rhs),rhsMax =   3.91373001973486E-03  1.33925617533140E-02
 cg2d: Sum(rhs),rhsMax =   3.91524236059112E-03  1.33928068259870E-02
 cg2d: Sum(rhs),rhsMax =   3.91676746635330E-03  1.33930517315877E-02
 cg2d: Sum(rhs),rhsMax =   3.91830548318779E-03  1.33932964704823E-02
 cg2d: Sum(rhs),rhsMax =   3.91985614803316E-03  1.33935410416422E-02
 cg2d: Sum(rhs),rhsMax =   3.92141927094825E-03  1.33937854456769E-02
 cg2d: Sum(rhs),rhsMax =   3.92299458065088E-03  1.33940296813532E-02
 cg2d: Sum(rhs),rhsMax =   3.92452789371261E-03  1.33942737477399E-02
 cg2d: Sum(rhs),rhsMax =   3.92607269036855E-03  1.33945176475004E-02
 cg2d: Sum(rhs),rhsMax =   3.92762905560069E-03  1.33947613785108E-02
 cg2d: Sum(rhs),rhsMax =   3.92919622283655E-03  1.33950049395768E-02
 cg2d: Sum(rhs),rhsMax =   3.93077488084831E-03  1.33952483322723E-02
 cg2d: Sum(rhs),rhsMax =   3.93236442827101E-03  1.33954915553398E-02
 cg2d: Sum(rhs),rhsMax =   3.93396482430941E-03  1.33957346087173E-02
 cg2d: Sum(rhs),rhsMax =   3.93557578996771E-03  1.33959774919446E-02
 cg2d: Sum(rhs),rhsMax =   3.93719718187120E-03  1.33962202050065E-02
 cg2d: Sum(rhs),rhsMax =   3.93877285442168E-03  1.33964627477801E-02
 cg2d: Sum(rhs),rhsMax =   3.94035819530680E-03  1.33967051200730E-02
 cg2d: Sum(rhs),rhsMax =   3.94195343480318E-03  1.33969473202617E-02
 cg2d: Sum(rhs),rhsMax =   3.94355788226944E-03  1.33971893499141E-02
 cg2d: Sum(rhs),rhsMax =   3.94517199722620E-03  1.33974312073822E-02
 cg2d: Sum(rhs),rhsMax =   3.94679518157001E-03  1.33976728932475E-02
 cg2d: Sum(rhs),rhsMax =   3.94842748782738E-03  1.33979144071073E-02
 cg2d: Sum(rhs),rhsMax =   3.95006886690584E-03  1.33981557483193E-02
 cg2d: Sum(rhs),rhsMax =   3.95171877730676E-03  1.33983969169403E-02
 cg2d: Sum(rhs),rhsMax =   3.95337749940373E-03  1.33986379126876E-02
 cg2d: Sum(rhs),rhsMax =   3.95504445092904E-03  1.33988787350706E-02
 cg2d: Sum(rhs),rhsMax =   3.95671979478183E-03  1.33991193846389E-02
 cg2d: Sum(rhs),rhsMax =   3.95840345206369E-03  1.33993598601727E-02
 cg2d: Sum(rhs),rhsMax =   3.96009502488506E-03  1.33996001617604E-02
 cg2d: Sum(rhs),rhsMax =   3.96179473605112E-03  1.33998402890275E-02
 cg2d: Sum(rhs),rhsMax =   3.96350225454175E-03  1.34000802425526E-02
 cg2d: Sum(rhs),rhsMax =   3.96521739783554E-03  1.34003200207986E-02
 cg2d: Sum(rhs),rhsMax =   3.96694007962815E-03  1.34005596248926E-02
 cg2d: Sum(rhs),rhsMax =   3.96867013436224E-03  1.34007990529963E-02
 cg2d: Sum(rhs),rhsMax =   3.97040748477306E-03  1.34010383065816E-02
 cg2d: Sum(rhs),rhsMax =   3.97215181863537E-03  1.34012773836561E-02
(PID.TID 0000.0001)      cg2d_init_res =   1.35845128626017E-03
(PID.TID 0000.0001)      cg2d_iters(min,last) =      -1     323
(PID.TID 0000.0001)      cg2d_last_res =   9.88869235167553E-08
(PID.TID 0000.0001) // =======================================================
(PID.TID 0000.0001) // Begin MONITOR dynamic field statistics
(PID.TID 0000.0001) // =======================================================
(PID.TID 0000.0001) %MON time_tsnumber                =                 18792
(PID.TID 0000.0001) %MON time_secondsf                =   2.2550400000000E+07
(PID.TID 0000.0001) %MON dynstat_eta_max              =   1.3535796650729E-01
(PID.TID 0000.0001) %MON dynstat_eta_min              =  -3.4884632460332E-01
(PID.TID 0000.0001) %MON dynstat_eta_mean             =  -2.5343546151512E-07
(PID.TID 0000.0001) %MON dynstat_eta_sd               =   1.2162278751362E-01
(PID.TID 0000.0001) %MON dynstat_eta_del2             =   7.3546092561891E-07
(PID.TID 0000.0001) %MON dynstat_uvel_max             =   1.3190410588173E-01
(PID.TID 0000.0001) %MON dynstat_uvel_min             =  -1.3213340209613E-01
(PID.TID 0000.0001) %MON dynstat_uvel_mean            =   1.4938396174680E-08
(PID.TID 0000.0001) %MON dynstat_uvel_sd              =   5.0901676618140E-02
(PID.TID 0000.0001) %MON dynstat_uvel_del2            =   1.1056438362685E-06
(PID.TID 0000.0001) %MON dynstat_vvel_max             =   1.6036721732753E-01
(PID.TID 0000.0001) %MON dynstat_vvel_min             =  -1.2447459192724E-01
(PID.TID 0000.0001) %MON dynstat_vvel_mean            =  -8.4778632350651E-08
(PID.TID 0000.0001) %MON dynstat_vvel_sd              =   4.8591759229828E-02
(PID.TID 0000.0001) %MON dynstat_vvel_del2            =   1.2839772583240E-06
(PID.TID 0000.0001) %MON dynstat_wvel_max             =   5.0579228298739E-09
(PID.TID 0000.0001) %MON dynstat_wvel_min             =  -7.6231212448329E-09
(PID.TID 0000.0001) %MON dynstat_wvel_mean            =   8.3522379855509E-21
(PID.TID 0000.0001) %MON dynstat_wvel_sd              =   2.2851657626669E-09
(PID.TID 0000.0001) %MON dynstat_wvel_del2            =   2.3689289858753E-14
(PID.TID 0000.0001) %MON dynstat_theta_max            =   2.0000000000000E+01
(PID.TID 0000.0001) %MON dynstat_theta_min            =   2.0000000000000E+01
(PID.TID 0000.0001) %MON dynstat_theta_mean           =   1.9999999999999E+01
(PID.TID 0000.0001) %MON dynstat_theta_sd             =   1.1972645097557E-12
(PID.TID 0000.0001) %MON dynstat_theta_del2           =   0.0000000000000E+00
(PID.TID 0000.0001) %MON dynstat_salt_max             =   3.0000000000000E+01
(PID.TID 0000.0001) %MON dynstat_salt_min             =   3.0000000000000E+01
(PID.TID 0000.0001) %MON dynstat_salt_mean            =   2.9999999999998E+01
(PID.TID 0000.0001) %MON dynstat_salt_sd              =   2.1529444893531E-12
(PID.TID 0000.0001) %MON dynstat_salt_del2            =   0.0000000000000E+00
(PID.TID 0000.0001) %MON trAdv_CFL_u_max              =   3.1711724721642E-02
(PID.TID 0000.0001) %MON trAdv_CFL_v_max              =   3.8487177603190E-02
(PID.TID 0000.0001) %MON trAdv_CFL_w_max              =   1.3158064256742E-09
(PID.TID 0000.0001) %MON advcfl_uvel_max              =   3.1712016503071E-02
(PID.TID 0000.0001) %MON advcfl_vvel_max              =   3.8488132158608E-02
(PID.TID 0000.0001) %MON advcfl_wvel_max              =   3.6590981975198E-09
(PID.TID 0000.0001) %MON advcfl_W_hf_max              =   0.0000000000000E+00
(PID.TID 0000.0001) %MON pe_b_mean                    =   1.5134346841786E-05
(PID.TID 0000.0001) %MON ke_max                       =   1.2868084517273E-02
(PID.TID 0000.0001) %MON ke_mean                      =   2.4649241409759E-03
(PID.TID 0000.0001) %MON ke_vol                       =   7.2529629296391E+15
(PID.TID 0000.0001) %MON vort_r_min                   =  -4.3952188964591E-06
(PID.TID 0000.0001) %MON vort_r_max                   =   3.4509742894021E-06
(PID.TID 0000.0001) %MON vort_a_mean                  =   1.0615000000000E-04
(PID.TID 0000.0001) %MON vort_a_sd                    =   3.6441219101203E-06
(PID.TID 0000.0001) %MON vort_p_mean                  =   1.1210870169429E-04
(PID.TID 0000.0001) %MON vort_p_sd                    =   2.1071121995334E-05
(PID.TID 0000.0001) %MON surfExpan_theta_mean         =   1.6683541557023E-19
(PID.TID 0000.0001) %MON surfExpan_salt_mean          =   2.5030489824541E-19
(PID.TID 0000.0001) // =======================================================
(PID.TID 0000.0001) // End MONITOR dynamic field statistics
(PID.TID 0000.0001) // =======================================================
 cg2d: Sum(rhs),rhsMax =   3.97390331073463E-03  1.34015162857196E-02
 cg2d: Sum(rhs),rhsMax =   3.97566124241139E-03  1.34017550111123E-02
 cg2d: Sum(rhs),rhsMax =   3.97742637798426E-03  1.34019935601624E-02
 cg2d: Sum(rhs),rhsMax =   3.97919803740536E-03  1.34022319321869E-02
 cg2d: Sum(rhs),rhsMax =   3.98097637039903E-03  1.34024701282304E-02
 cg2d: Sum(rhs),rhsMax =   3.98276105721601E-03  1.34027081463291E-02
 cg2d: Sum(rhs),rhsMax =   3.98455207921588E-03  1.34029459879884E-02
 cg2d: Sum(rhs),rhsMax =   3.98634921435636E-03  1.34031836510049E-02
 cg2d: Sum(rhs),rhsMax =   3.98815246705468E-03  1.34034211371943E-02
 cg2d: Sum(rhs),rhsMax =   3.98996168871860E-03  1.34036584443603E-02
 cg2d: Sum(rhs),rhsMax =   3.99177679393125E-03  1.34038955744945E-02
 cg2d: Sum(rhs),rhsMax =   3.99359774692870E-03  1.34041325249059E-02
 cg2d: Sum(rhs),rhsMax =   3.99542426613602E-03  1.34043692974532E-02
 cg2d: Sum(rhs),rhsMax =   3.99725655764703E-03  1.34046058901108E-02
 cg2d: Sum(rhs),rhsMax =   3.99909419782649E-03  1.34048423045037E-02
 cg2d: Sum(rhs),rhsMax =   4.00093737029741E-03  1.34050785384569E-02
 cg2d: Sum(rhs),rhsMax =   4.00278572723036E-03  1.34053145934856E-02
 cg2d: Sum(rhs),rhsMax =   4.00463914406258E-03  1.34055504679366E-02
 cg2d: Sum(rhs),rhsMax =   4.00649783259981E-03  1.34057861630662E-02
 cg2d: Sum(rhs),rhsMax =   4.00836153269394E-03  1.34060216767630E-02
 cg2d: Sum(rhs),rhsMax =   4.01023020219457E-03  1.34062570108773E-02
 cg2d: Sum(rhs),rhsMax =   4.01210370371271E-03  1.34064921630306E-02
 cg2d: Sum(rhs),rhsMax =   4.01398205555720E-03  1.34067271351056E-02
 cg2d: Sum(rhs),rhsMax =   4.01586498154016E-03  1.34069619250490E-02
 cg2d: Sum(rhs),rhsMax =   4.01775251739026E-03  1.34071965343987E-02
 cg2d: Sum(rhs),rhsMax =   4.01964445759146E-03  1.34074309609334E-02
 cg2d: Sum(rhs),rhsMax =   4.02154110228962E-03  1.34076652066240E-02
 cg2d: Sum(rhs),rhsMax =   4.02344195115428E-03  1.34078992694609E-02
 cg2d: Sum(rhs),rhsMax =   4.02528160627253E-03  1.34081331523453E-02
 cg2d: Sum(rhs),rhsMax =   4.02699649352886E-03  1.34083668507873E-02
 cg2d: Sum(rhs),rhsMax =   4.02871519092662E-03  1.34086003665502E-02
 cg2d: Sum(rhs),rhsMax =   4.03043737653999E-03  1.34088336984913E-02
 cg2d: Sum(rhs),rhsMax =   4.03216341915857E-03  1.34090668472205E-02
 cg2d: Sum(rhs),rhsMax =   4.03389315812642E-03  1.34092998126728E-02
 cg2d: Sum(rhs),rhsMax =   4.03562641532761E-03  1.34095325941203E-02
 cg2d: Sum(rhs),rhsMax =   4.03736310721394E-03  1.34097651917621E-02
 cg2d: Sum(rhs),rhsMax =   4.03910333647807E-03  1.34099976052663E-02
 cg2d: Sum(rhs),rhsMax =   4.04084698611440E-03  1.34102298343578E-02
 cg2d: Sum(rhs),rhsMax =   4.04259399692614E-03  1.34104618784214E-02
 cg2d: Sum(rhs),rhsMax =   4.04434432847495E-03  1.34106937382026E-02
 cg2d: Sum(rhs),rhsMax =   4.04609763767015E-03  1.34109254124354E-02
 cg2d: Sum(rhs),rhsMax =   4.04785415396160E-03  1.34111569026831E-02
 cg2d: Sum(rhs),rhsMax =   4.04961392163946E-03  1.34113882064092E-02
 cg2d: Sum(rhs),rhsMax =   4.05137692035470E-03  1.34116193249424E-02
 cg2d: Sum(rhs),rhsMax =   4.05314285064835E-03  1.34118502574266E-02
 cg2d: Sum(rhs),rhsMax =   4.05491198053162E-03  1.34120810042257E-02
 cg2d: Sum(rhs),rhsMax =   4.05668388811562E-03  1.34123115642914E-02
 cg2d: Sum(rhs),rhsMax =   4.05845880176406E-03  1.34125419382575E-02
 cg2d: Sum(rhs),rhsMax =   4.06023662139973E-03  1.34127721248670E-02
 cg2d: Sum(rhs),rhsMax =   4.06201712114794E-03  1.34130021250800E-02
 cg2d: Sum(rhs),rhsMax =   4.06380044731032E-03  1.34132319385064E-02
 cg2d: Sum(rhs),rhsMax =   4.06558667429502E-03  1.34134615646592E-02
 cg2d: Sum(rhs),rhsMax =   4.06737552001827E-03  1.34136910027967E-02
 cg2d: Sum(rhs),rhsMax =   4.06916714598980E-03  1.34139202535494E-02
 cg2d: Sum(rhs),rhsMax =   4.07096136665821E-03  1.34141493160697E-02
 cg2d: Sum(rhs),rhsMax =   4.07275823384742E-03  1.34143781911716E-02
 cg2d: Sum(rhs),rhsMax =   4.07455757138987E-03  1.34146068765149E-02
 cg2d: Sum(rhs),rhsMax =   4.07635957511810E-03  1.34148353752653E-02
 cg2d: Sum(rhs),rhsMax =   4.07816409537973E-03  1.34150636848569E-02
 cg2d: Sum(rhs),rhsMax =   4.07997106573808E-03  1.34152918060435E-02
 cg2d: Sum(rhs),rhsMax =   4.08178054525739E-03  1.34155197371057E-02
 cg2d: Sum(rhs),rhsMax =   4.08359243154413E-03  1.34157474791029E-02
 cg2d: Sum(rhs),rhsMax =   4.08540658988699E-03  1.34159750316060E-02
 cg2d: Sum(rhs),rhsMax =   4.08722313229015E-03  1.34162023955905E-02
 cg2d: Sum(rhs),rhsMax =   4.08904203469716E-03  1.34164295682240E-02
 cg2d: Sum(rhs),rhsMax =   4.09086331999104E-03  1.34166565517213E-02
 cg2d: Sum(rhs),rhsMax =   4.09268673199823E-03  1.34168833450652E-02
 cg2d: Sum(rhs),rhsMax =   4.09451262014365E-03  1.34171099480246E-02
 cg2d: Sum(rhs),rhsMax =   4.09634059756000E-03  1.34173363594887E-02
 cg2d: Sum(rhs),rhsMax =   4.09817100896149E-03  1.34175625815318E-02
 cg2d: Sum(rhs),rhsMax =   4.10000345509185E-03  1.34177886117291E-02
 cg2d: Sum(rhs),rhsMax =   4.10183819406292E-03  1.34180144515538E-02
(PID.TID 0000.0001)      cg2d_init_res =   1.34126605076651E-03
(PID.TID 0000.0001)      cg2d_iters(min,last) =      -1     326
(PID.TID 0000.0001)      cg2d_last_res =   9.95687709742234E-08
(PID.TID 0000.0001) // =======================================================
(PID.TID 0000.0001) // Begin MONITOR dynamic field statistics
(PID.TID 0000.0001) // =======================================================
(PID.TID 0000.0001) %MON time_tsnumber                =                 18864
(PID.TID 0000.0001) %MON time_secondsf                =   2.2636800000000E+07
(PID.TID 0000.0001) %MON dynstat_eta_max              =   1.3539220540948E-01
(PID.TID 0000.0001) %MON dynstat_eta_min              =  -3.4939431491548E-01
(PID.TID 0000.0001) %MON dynstat_eta_mean             =  -2.6203824239235E-07
(PID.TID 0000.0001) %MON dynstat_eta_sd               =   1.2176271769311E-01
(PID.TID 0000.0001) %MON dynstat_eta_del2             =   7.3618584101257E-07
(PID.TID 0000.0001) %MON dynstat_uvel_max             =   1.3212711202652E-01
(PID.TID 0000.0001) %MON dynstat_uvel_min             =  -1.3221946851297E-01
(PID.TID 0000.0001) %MON dynstat_uvel_mean            =   1.4815092160362E-09
(PID.TID 0000.0001) %MON dynstat_uvel_sd              =   5.0974179164849E-02
(PID.TID 0000.0001) %MON dynstat_uvel_del2            =   1.1070374987083E-06
(PID.TID 0000.0001) %MON dynstat_vvel_max             =   1.6065145583309E-01
(PID.TID 0000.0001) %MON dynstat_vvel_min             =  -1.2454184455710E-01
(PID.TID 0000.0001) %MON dynstat_vvel_mean            =  -8.5543230174952E-08
(PID.TID 0000.0001) %MON dynstat_vvel_sd              =   4.8638911576487E-02
(PID.TID 0000.0001) %MON dynstat_vvel_del2            =   1.2848624902533E-06
(PID.TID 0000.0001) %MON dynstat_wvel_max             =   5.3065964952111E-09
(PID.TID 0000.0001) %MON dynstat_wvel_min             =  -7.6944289053790E-09
(PID.TID 0000.0001) %MON dynstat_wvel_mean            =   7.6713880346511E-21
(PID.TID 0000.0001) %MON dynstat_wvel_sd              =   2.2701287482935E-09
(PID.TID 0000.0001) %MON dynstat_wvel_del2            =   2.3796939332830E-14
(PID.TID 0000.0001) %MON dynstat_theta_max            =   2.0000000000000E+01
(PID.TID 0000.0001) %MON dynstat_theta_min            =   2.0000000000000E+01
(PID.TID 0000.0001) %MON dynstat_theta_mean           =   1.9999999999999E+01
(PID.TID 0000.0001) %MON dynstat_theta_sd             =   1.1972645097557E-12
(PID.TID 0000.0001) %MON dynstat_theta_del2           =   0.0000000000000E+00
(PID.TID 0000.0001) %MON dynstat_salt_max             =   3.0000000000000E+01
(PID.TID 0000.0001) %MON dynstat_salt_min             =   3.0000000000000E+01
(PID.TID 0000.0001) %MON dynstat_salt_mean            =   2.9999999999998E+01
(PID.TID 0000.0001) %MON dynstat_salt_sd              =   2.1529444893531E-12
(PID.TID 0000.0001) %MON dynstat_salt_del2            =   0.0000000000000E+00
(PID.TID 0000.0001) %MON trAdv_CFL_u_max              =   3.1732390773301E-02
(PID.TID 0000.0001) %MON trAdv_CFL_v_max              =   3.8555408022617E-02
(PID.TID 0000.0001) %MON trAdv_CFL_w_max              =   1.3750153962463E-09
(PID.TID 0000.0001) %MON advcfl_uvel_max              =   3.1732672443113E-02
(PID.TID 0000.0001) %MON advcfl_vvel_max              =   3.8556349399941E-02
(PID.TID 0000.0001) %MON advcfl_wvel_max              =   3.6933258745819E-09
(PID.TID 0000.0001) %MON advcfl_W_hf_max              =   0.0000000000000E+00
(PID.TID 0000.0001) %MON pe_b_mean                    =   1.5169191794413E-05
(PID.TID 0000.0001) %MON ke_max                       =   1.2913005508479E-02
(PID.TID 0000.0001) %MON ke_mean                      =   2.4708826548016E-03
(PID.TID 0000.0001) %MON ke_vol                       =   7.2529629296391E+15
(PID.TID 0000.0001) %MON vort_r_min                   =  -4.4004975885905E-06
(PID.TID 0000.0001) %MON vort_r_max                   =   3.4526034517104E-06
(PID.TID 0000.0001) %MON vort_a_mean                  =   1.0615000000000E-04
(PID.TID 0000.0001) %MON vort_a_sd                    =   3.6442903528696E-06
(PID.TID 0000.0001) %MON vort_p_mean                  =   1.1210870169429E-04
(PID.TID 0000.0001) %MON vort_p_sd                    =   2.1071155017048E-05
(PID.TID 0000.0001) %MON surfExpan_theta_mean         =   1.5325958053928E-19
(PID.TID 0000.0001) %MON surfExpan_salt_mean          =   2.2987625918434E-19
(PID.TID 0000.0001) // =======================================================
(PID.TID 0000.0001) // End MONITOR dynamic field statistics
(PID.TID 0000.0001) // =======================================================
 cg2d: Sum(rhs),rhsMax =   4.10367513295959E-03  1.34182400991969E-02
 cg2d: Sum(rhs),rhsMax =   4.10551417992690E-03  1.34184655564233E-02
 cg2d: Sum(rhs),rhsMax =   4.10735489271101E-03  1.34186908214258E-02
 cg2d: Sum(rhs),rhsMax =   4.10919813429464E-03  1.34189158952994E-02
 cg2d: Sum(rhs),rhsMax =   4.11104340615595E-03  1.34191407758445E-02
 cg2d: Sum(rhs),rhsMax =   4.11289084798694E-03  1.34193654648869E-02
 cg2d: Sum(rhs),rhsMax =   4.11474028678244E-03  1.34195899609201E-02
 cg2d: Sum(rhs),rhsMax =   4.11659175703550E-03  1.34198142653432E-02
 cg2d: Sum(rhs),rhsMax =   4.11844486197375E-03  1.34200383761235E-02
 cg2d: Sum(rhs),rhsMax =   4.12029996499200E-03  1.34202622955464E-02
 cg2d: Sum(rhs),rhsMax =   4.12215740403046E-03  1.34204860206487E-02
 cg2d: Sum(rhs),rhsMax =   4.12401677775806E-03  1.34207095528611E-02
 cg2d: Sum(rhs),rhsMax =   4.12587813781843E-03  1.34209328913075E-02
 cg2d: Sum(rhs),rhsMax =   4.12767118526735E-03  1.34211560330062E-02
 cg2d: Sum(rhs),rhsMax =   4.12946599555953E-03  1.34213789852406E-02
 cg2d: Sum(rhs),rhsMax =   4.13126291552282E-03  1.34216017424002E-02
 cg2d: Sum(rhs),rhsMax =   4.13306153512947E-03  1.34218243059996E-02
 cg2d: Sum(rhs),rhsMax =   4.13486135570662E-03  1.34220466750293E-02
 cg2d: Sum(rhs),rhsMax =   4.13666365403380E-03  1.34222688502386E-02
 cg2d: Sum(rhs),rhsMax =   4.13846730931177E-03  1.34224908307504E-02
 cg2d: Sum(rhs),rhsMax =   4.14027312171181E-03  1.34227126162813E-02
 cg2d: Sum(rhs),rhsMax =   4.14208060116067E-03  1.34229342063216E-02
 cg2d: Sum(rhs),rhsMax =   4.14389010962572E-03  1.34231556024032E-02
 cg2d: Sum(rhs),rhsMax =   4.14570115729851E-03  1.34233768022045E-02
 cg2d: Sum(rhs),rhsMax =   4.14751408338303E-03  1.34235978076711E-02
 cg2d: Sum(rhs),rhsMax =   4.14932865508979E-03  1.34238186164964E-02
 cg2d: Sum(rhs),rhsMax =   4.15114500239271E-03  1.34240392306978E-02
 cg2d: Sum(rhs),rhsMax =   4.15296309112536E-03  1.34242596478158E-02
 cg2d: Sum(rhs),rhsMax =   4.15478276239011E-03  1.34244798702624E-02
 cg2d: Sum(rhs),rhsMax =   4.15660429718995E-03  1.34246998953879E-02
 cg2d: Sum(rhs),rhsMax =   4.15842718362685E-03  1.34249197249531E-02
 cg2d: Sum(rhs),rhsMax =   4.16025197073164E-03  1.34251393573150E-02
 cg2d: Sum(rhs),rhsMax =   4.16207833411236E-03  1.34253587940693E-02
 cg2d: Sum(rhs),rhsMax =   4.16390674032698E-03  1.34255780331272E-02
 cg2d: Sum(rhs),rhsMax =   4.16573666501331E-03  1.34257970758805E-02
 cg2d: Sum(rhs),rhsMax =   4.16756807438809E-03  1.34260159210924E-02
 cg2d: Sum(rhs),rhsMax =   4.16940141389344E-03  1.34262345695578E-02
 cg2d: Sum(rhs),rhsMax =   4.17123645434449E-03  1.34264530198085E-02
 cg2d: Sum(rhs),rhsMax =   4.17307324822703E-03  1.34266712733968E-02
 cg2d: Sum(rhs),rhsMax =   4.17484201613942E-03  1.34268893308247E-02
 cg2d: Sum(rhs),rhsMax =   4.17661212915603E-03  1.34271071888521E-02
 cg2d: Sum(rhs),rhsMax =   4.17838416827959E-03  1.34273248488660E-02
 cg2d: Sum(rhs),rhsMax =   4.18015742421167E-03  1.34275423103775E-02
 cg2d: Sum(rhs),rhsMax =   4.18193261425123E-03  1.34277595739980E-02
 cg2d: Sum(rhs),rhsMax =   4.18370913358279E-03  1.34279766383006E-02
 cg2d: Sum(rhs),rhsMax =   4.18548746771284E-03  1.34281935053455E-02
 cg2d: Sum(rhs),rhsMax =   4.18726714253635E-03  1.34284101729737E-02
 cg2d: Sum(rhs),rhsMax =   4.18904861284776E-03  1.34286266425615E-02
 cg2d: Sum(rhs),rhsMax =   4.19083145589236E-03  1.34288429130256E-02
 cg2d: Sum(rhs),rhsMax =   4.19261607441300E-03  1.34290589842063E-02
 cg2d: Sum(rhs),rhsMax =   4.19440222628230E-03  1.34292748551119E-02
 cg2d: Sum(rhs),rhsMax =   4.19619002135154E-03  1.34294905279282E-02
 cg2d: Sum(rhs),rhsMax =   4.19797932160117E-03  1.34297059999943E-02
 cg2d: Sum(rhs),rhsMax =   4.19977033275419E-03  1.34299212742366E-02
 cg2d: Sum(rhs),rhsMax =   4.20156247070311E-03  1.34301363473868E-02
 cg2d: Sum(rhs),rhsMax =   4.20335655446135E-03  1.34303512220818E-02
 cg2d: Sum(rhs),rhsMax =   4.20515183482790E-03  1.34305658956994E-02
 cg2d: Sum(rhs),rhsMax =   4.20694915506343E-03  1.34307803696822E-02
 cg2d: Sum(rhs),rhsMax =   4.20874779329222E-03  1.34309946426210E-02
 cg2d: Sum(rhs),rhsMax =   4.21054818375957E-03  1.34312087163937E-02
 cg2d: Sum(rhs),rhsMax =   4.21235006342040E-03  1.34314225889094E-02
 cg2d: Sum(rhs),rhsMax =   4.21415366948527E-03  1.34316362607092E-02
 cg2d: Sum(rhs),rhsMax =   4.21595874814239E-03  1.34318497300413E-02
 cg2d: Sum(rhs),rhsMax =   4.21776555077871E-03  1.34320630016074E-02
 cg2d: Sum(rhs),rhsMax =   4.21950317718712E-03  1.34322760712662E-02
 cg2d: Sum(rhs),rhsMax =   4.22124207280525E-03  1.34324889411615E-02
 cg2d: Sum(rhs),rhsMax =   4.22298293953861E-03  1.34327016067227E-02
 cg2d: Sum(rhs),rhsMax =   4.22472502627085E-03  1.34329140730257E-02
 cg2d: Sum(rhs),rhsMax =   4.22646881614324E-03  1.34331263362789E-02
 cg2d: Sum(rhs),rhsMax =   4.22821398029982E-03  1.34333383996928E-02
 cg2d: Sum(rhs),rhsMax =   4.22996074370954E-03  1.34335502602489E-02
 cg2d: Sum(rhs),rhsMax =   4.23170920532270E-03  1.34337619196271E-02
(PID.TID 0000.0001)      cg2d_init_res =   1.32662046512259E-03
(PID.TID 0000.0001)      cg2d_iters(min,last) =      -1     329
(PID.TID 0000.0001)      cg2d_last_res =   9.63501355074358E-08
(PID.TID 0000.0001) // =======================================================
(PID.TID 0000.0001) // Begin MONITOR dynamic field statistics
(PID.TID 0000.0001) // =======================================================
(PID.TID 0000.0001) %MON time_tsnumber                =                 18936
(PID.TID 0000.0001) %MON time_secondsf                =   2.2723200000000E+07
(PID.TID 0000.0001) %MON dynstat_eta_max              =   1.3546447576270E-01
(PID.TID 0000.0001) %MON dynstat_eta_min              =  -3.4995229750360E-01
(PID.TID 0000.0001) %MON dynstat_eta_mean             =  -2.7064250520663E-07
(PID.TID 0000.0001) %MON dynstat_eta_sd               =   1.2190315565884E-01
(PID.TID 0000.0001) %MON dynstat_eta_del2             =   7.3692992700176E-07
(PID.TID 0000.0001) %MON dynstat_uvel_max             =   1.3234616426027E-01
(PID.TID 0000.0001) %MON dynstat_uvel_min             =  -1.3230208661490E-01
(PID.TID 0000.0001) %MON dynstat_uvel_mean            =  -1.1647287187260E-08
(PID.TID 0000.0001) %MON dynstat_uvel_sd              =   5.1046025641842E-02
(PID.TID 0000.0001) %MON dynstat_uvel_del2            =   1.1083449780175E-06
(PID.TID 0000.0001) %MON dynstat_vvel_max             =   1.6093249088969E-01
(PID.TID 0000.0001) %MON dynstat_vvel_min             =  -1.2459697400509E-01
(PID.TID 0000.0001) %MON dynstat_vvel_mean            =  -8.4018765564690E-08
(PID.TID 0000.0001) %MON dynstat_vvel_sd              =   4.8687060576472E-02
(PID.TID 0000.0001) %MON dynstat_vvel_del2            =   1.2861562264061E-06
(PID.TID 0000.0001) %MON dynstat_wvel_max             =   5.5042013851926E-09
(PID.TID 0000.0001) %MON dynstat_wvel_min             =  -7.7419548574835E-09
(PID.TID 0000.0001) %MON dynstat_wvel_mean            =   7.6291419430077E-22
(PID.TID 0000.0001) %MON dynstat_wvel_sd              =   2.2555136609462E-09
(PID.TID 0000.0001) %MON dynstat_wvel_del2            =   2.3163952498289E-14
(PID.TID 0000.0001) %MON dynstat_theta_max            =   2.0000000000000E+01
(PID.TID 0000.0001) %MON dynstat_theta_min            =   2.0000000000000E+01
(PID.TID 0000.0001) %MON dynstat_theta_mean           =   1.9999999999999E+01
(PID.TID 0000.0001) %MON dynstat_theta_sd             =   1.1972645097557E-12
(PID.TID 0000.0001) %MON dynstat_theta_del2           =   0.0000000000000E+00
(PID.TID 0000.0001) %MON dynstat_salt_max             =   3.0000000000000E+01
(PID.TID 0000.0001) %MON dynstat_salt_min             =   3.0000000000000E+01
(PID.TID 0000.0001) %MON dynstat_salt_mean            =   2.9999999999998E+01
(PID.TID 0000.0001) %MON dynstat_salt_sd              =   2.1529444893531E-12
(PID.TID 0000.0001) %MON dynstat_salt_del2            =   0.0000000000000E+00
(PID.TID 0000.0001) %MON trAdv_CFL_u_max              =   3.1762358416209E-02
(PID.TID 0000.0001) %MON trAdv_CFL_v_max              =   3.8622864703039E-02
(PID.TID 0000.0001) %MON trAdv_CFL_w_max              =   1.4211938301441E-09
(PID.TID 0000.0001) %MON advcfl_uvel_max              =   3.1763079422464E-02
(PID.TID 0000.0001) %MON advcfl_vvel_max              =   3.8623797813527E-02
(PID.TID 0000.0001) %MON advcfl_wvel_max              =   3.7161383315921E-09
(PID.TID 0000.0001) %MON advcfl_W_hf_max              =   0.0000000000000E+00
(PID.TID 0000.0001) %MON pe_b_mean                    =   1.5204203479634E-05
(PID.TID 0000.0001) %MON ke_max                       =   1.2957406388063E-02
(PID.TID 0000.0001) %MON ke_mean                      =   2.4768635809056E-03
(PID.TID 0000.0001) %MON ke_vol                       =   7.2529629296391E+15
(PID.TID 0000.0001) %MON vort_r_min                   =  -4.4054825128263E-06
(PID.TID 0000.0001) %MON vort_r_max                   =   3.4560180631950E-06
(PID.TID 0000.0001) %MON vort_a_mean                  =   1.0615000000000E-04
(PID.TID 0000.0001) %MON vort_a_sd                    =   3.6444634681340E-06
(PID.TID 0000.0001) %MON vort_p_mean                  =   1.1210870169429E-04
(PID.TID 0000.0001) %MON vort_p_sd                    =   2.1071191774427E-05
(PID.TID 0000.0001) %MON surfExpan_theta_mean         =   1.5151575912722E-20
(PID.TID 0000.0001) %MON surfExpan_salt_mean          =   2.2684831811345E-20
(PID.TID 0000.0001) // =======================================================
(PID.TID 0000.0001) // End MONITOR dynamic field statistics
(PID.TID 0000.0001) // =======================================================
 cg2d: Sum(rhs),rhsMax =   4.23345915607294E-03  1.34339733762197E-02
 cg2d: Sum(rhs),rhsMax =   4.23521068573774E-03  1.34341846316693E-02
 cg2d: Sum(rhs),rhsMax =   4.23696367639533E-03  1.34343956842293E-02
 cg2d: Sum(rhs),rhsMax =   4.23871830493780E-03  1.34346065350016E-02
 cg2d: Sum(rhs),rhsMax =   4.24047397989783E-03  1.34348171832889E-02
 cg2d: Sum(rhs),rhsMax =   4.24223157849237E-03  1.34350276292360E-02
 cg2d: Sum(rhs),rhsMax =   4.24399062101605E-03  1.34352378710752E-02
 cg2d: Sum(rhs),rhsMax =   4.24575139680183E-03  1.34354479117157E-02
 cg2d: Sum(rhs),rhsMax =   4.24751377800300E-03  1.34356577482426E-02
 cg2d: Sum(rhs),rhsMax =   4.24927764589180E-03  1.34358673835371E-02
 cg2d: Sum(rhs),rhsMax =   4.25104314603393E-03  1.34360768145145E-02
 cg2d: Sum(rhs),rhsMax =   4.25281009133828E-03  1.34362860437512E-02
 cg2d: Sum(rhs),rhsMax =   4.25457871183140E-03  1.34364950683890E-02
 cg2d: Sum(rhs),rhsMax =   4.25634875187610E-03  1.34367038909688E-02
 cg2d: Sum(rhs),rhsMax =   4.25812045016531E-03  1.34369125088281E-02
 cg2d: Sum(rhs),rhsMax =   4.25989357066205E-03  1.34371209242567E-02
 cg2d: Sum(rhs),rhsMax =   4.26166823280988E-03  1.34373291352998E-02
 cg2d: Sum(rhs),rhsMax =   4.26344453912447E-03  1.34375371442860E-02
 cg2d: Sum(rhs),rhsMax =   4.26522263087435E-03  1.34377449473543E-02
 cg2d: Sum(rhs),rhsMax =   4.26700212854509E-03  1.34379525476089E-02
 cg2d: Sum(rhs),rhsMax =   4.26878331588198E-03  1.34381599421908E-02
 cg2d: Sum(rhs),rhsMax =   4.27056607951139E-03  1.34383671338506E-02
 cg2d: Sum(rhs),rhsMax =   4.27235056489777E-03  1.34385741207928E-02
 cg2d: Sum(rhs),rhsMax =   4.27413659429016E-03  1.34387809042914E-02
 cg2d: Sum(rhs),rhsMax =   4.27592431433603E-03  1.34389874830262E-02
 cg2d: Sum(rhs),rhsMax =   4.27771356312791E-03  1.34391938578583E-02
 cg2d: Sum(rhs),rhsMax =   4.27950449666913E-03  1.34394000274806E-02
 cg2d: Sum(rhs),rhsMax =   4.28129697764660E-03  1.34396059928462E-02
 cg2d: Sum(rhs),rhsMax =   4.28309101505171E-03  1.34398117533080E-02
 cg2d: Sum(rhs),rhsMax =   4.28488683189576E-03  1.34400173091897E-02
 cg2d: Sum(rhs),rhsMax =   4.28668425154680E-03  1.34402226591727E-02
 cg2d: Sum(rhs),rhsMax =   4.28848340879890E-03  1.34404278046851E-02
 cg2d: Sum(rhs),rhsMax =   4.29028419926924E-03  1.34406327444271E-02
 cg2d: Sum(rhs),rhsMax =   4.29208673524121E-03  1.34408374801772E-02
 cg2d: Sum(rhs),rhsMax =   4.29389088399363E-03  1.34410420098208E-02
 cg2d: Sum(rhs),rhsMax =   4.29569675063224E-03  1.34412463352397E-02
 cg2d: Sum(rhs),rhsMax =   4.29750417629280E-03  1.34414504543124E-02
 cg2d: Sum(rhs),rhsMax =   4.29931326248027E-03  1.34416543690175E-02
 cg2d: Sum(rhs),rhsMax =   4.30105041538068E-03  1.34418580781683E-02
 cg2d: Sum(rhs),rhsMax =   4.30278912426308E-03  1.34420615816177E-02
 cg2d: Sum(rhs),rhsMax =   4.30452956561816E-03  1.34422648786235E-02
 cg2d: Sum(rhs),rhsMax =   4.30627151718865E-03  1.34424679688507E-02
 cg2d: Sum(rhs),rhsMax =   4.30801520200415E-03  1.34426708550672E-02
 cg2d: Sum(rhs),rhsMax =   4.30976042795550E-03  1.34428735347935E-02
 cg2d: Sum(rhs),rhsMax =   4.31150724826330E-03  1.34430760085171E-02
 cg2d: Sum(rhs),rhsMax =   4.31325569063537E-03  1.34432782747776E-02
 cg2d: Sum(rhs),rhsMax =   4.31500533105148E-03  1.34434803373804E-02
 cg2d: Sum(rhs),rhsMax =   4.31675700463494E-03  1.34436821936866E-02
 cg2d: Sum(rhs),rhsMax =   4.31851037388385E-03  1.34438838412766E-02
 cg2d: Sum(rhs),rhsMax =   4.32026537623741E-03  1.34440852839922E-02
 cg2d: Sum(rhs),rhsMax =   4.32202198072694E-03  1.34442865198095E-02
 cg2d: Sum(rhs),rhsMax =   4.32378028888383E-03  1.34444875505820E-02
 cg2d: Sum(rhs),rhsMax =   4.32554011175505E-03  1.34446883739168E-02
 cg2d: Sum(rhs),rhsMax =   4.32730171047284E-03  1.34448889904757E-02
 cg2d: Sum(rhs),rhsMax =   4.32906486580027E-03  1.34450894001555E-02
 cg2d: Sum(rhs),rhsMax =   4.33082968311008E-03  1.34452896047652E-02
 cg2d: Sum(rhs),rhsMax =   4.33259628521839E-03  1.34454896006386E-02
 cg2d: Sum(rhs),rhsMax =   4.33436450374380E-03  1.34456893904875E-02
 cg2d: Sum(rhs),rhsMax =   4.33613447260364E-03  1.34458889727270E-02
 cg2d: Sum(rhs),rhsMax =   4.33783421772769E-03  1.34460883456191E-02
 cg2d: Sum(rhs),rhsMax =   4.33953544979974E-03  1.34462875153564E-02
 cg2d: Sum(rhs),rhsMax =   4.34123855320875E-03  1.34464864775429E-02
 cg2d: Sum(rhs),rhsMax =   4.34294302054260E-03  1.34466852323176E-02
 cg2d: Sum(rhs),rhsMax =   4.34464923225419E-03  1.34468837803271E-02
 cg2d: Sum(rhs),rhsMax =   4.34635693740852E-03  1.34470821206997E-02
 cg2d: Sum(rhs),rhsMax =   4.34806599099352E-03  1.34472802539692E-02
 cg2d: Sum(rhs),rhsMax =   4.34977676956726E-03  1.34474781791880E-02
 cg2d: Sum(rhs),rhsMax =   4.35148912071559E-03  1.34476758988470E-02
 cg2d: Sum(rhs),rhsMax =   4.35320332144046E-03  1.34478734097424E-02
 cg2d: Sum(rhs),rhsMax =   4.35491897604492E-03  1.34480707128885E-02
 cg2d: Sum(rhs),rhsMax =   4.35663640632628E-03  1.34482678095303E-02
 cg2d: Sum(rhs),rhsMax =   4.35828502407452E-03  1.34484646976749E-02
(PID.TID 0000.0001)      cg2d_init_res =   1.31480658275856E-03
(PID.TID 0000.0001)      cg2d_iters(min,last) =      -1     332
(PID.TID 0000.0001)      cg2d_last_res =   9.64304787599075E-08
(PID.TID 0000.0001) // =======================================================
(PID.TID 0000.0001) // Begin MONITOR dynamic field statistics
(PID.TID 0000.0001) // =======================================================
(PID.TID 0000.0001) %MON time_tsnumber                =                 19008
(PID.TID 0000.0001) %MON time_secondsf                =   2.2809600000000E+07
(PID.TID 0000.0001) %MON dynstat_eta_max              =   1.3557997047816E-01
(PID.TID 0000.0001) %MON dynstat_eta_min              =  -3.5051964728750E-01
(PID.TID 0000.0001) %MON dynstat_eta_mean             =  -2.7903278839209E-07
(PID.TID 0000.0001) %MON dynstat_eta_sd               =   1.2204380705464E-01
(PID.TID 0000.0001) %MON dynstat_eta_del2             =   7.3769118734949E-07
(PID.TID 0000.0001) %MON dynstat_uvel_max             =   1.3255887103256E-01
(PID.TID 0000.0001) %MON dynstat_uvel_min             =  -1.3238048534609E-01
(PID.TID 0000.0001) %MON dynstat_uvel_mean            =  -2.3933624128333E-08
(PID.TID 0000.0001) %MON dynstat_uvel_sd              =   5.1116437157829E-02
(PID.TID 0000.0001) %MON dynstat_uvel_del2            =   1.1095460961819E-06
(PID.TID 0000.0001) %MON dynstat_vvel_max             =   1.6121176727967E-01
(PID.TID 0000.0001) %MON dynstat_vvel_min             =  -1.2464331709541E-01
(PID.TID 0000.0001) %MON dynstat_vvel_mean            =  -8.0320545533811E-08
(PID.TID 0000.0001) %MON dynstat_vvel_sd              =   4.8736981109630E-02
(PID.TID 0000.0001) %MON dynstat_vvel_del2            =   1.2878234300320E-06
(PID.TID 0000.0001) %MON dynstat_wvel_max             =   5.6525538302958E-09
(PID.TID 0000.0001) %MON dynstat_wvel_min             =  -7.7630614326335E-09
(PID.TID 0000.0001) %MON dynstat_wvel_mean            =   3.8707034568750E-21
(PID.TID 0000.0001) %MON dynstat_wvel_sd              =   2.2406543788035E-09
(PID.TID 0000.0001) %MON dynstat_wvel_del2            =   2.3051402199028E-14
(PID.TID 0000.0001) %MON dynstat_theta_max            =   2.0000000000000E+01
(PID.TID 0000.0001) %MON dynstat_theta_min            =   2.0000000000000E+01
(PID.TID 0000.0001) %MON dynstat_theta_mean           =   1.9999999999999E+01
(PID.TID 0000.0001) %MON dynstat_theta_sd             =   1.1972645097557E-12
(PID.TID 0000.0001) %MON dynstat_theta_del2           =   0.0000000000000E+00
(PID.TID 0000.0001) %MON dynstat_salt_max             =   3.0000000000000E+01
(PID.TID 0000.0001) %MON dynstat_salt_min             =   3.0000000000000E+01
(PID.TID 0000.0001) %MON dynstat_salt_mean            =   2.9999999999998E+01
(PID.TID 0000.0001) %MON dynstat_salt_sd              =   2.1529444893531E-12
(PID.TID 0000.0001) %MON dynstat_salt_del2            =   0.0000000000000E+00
(PID.TID 0000.0001) %MON trAdv_CFL_u_max              =   3.1813432839374E-02
(PID.TID 0000.0001) %MON trAdv_CFL_v_max              =   3.8689894611781E-02
(PID.TID 0000.0001) %MON trAdv_CFL_w_max              =   1.4546562428705E-09
(PID.TID 0000.0001) %MON advcfl_uvel_max              =   3.1814129047815E-02
(PID.TID 0000.0001) %MON advcfl_vvel_max              =   3.8690824147120E-02
(PID.TID 0000.0001) %MON advcfl_wvel_max              =   3.7262694876641E-09
(PID.TID 0000.0001) %MON advcfl_W_hf_max              =   0.0000000000000E+00
(PID.TID 0000.0001) %MON pe_b_mean                    =   1.5239308824074E-05
(PID.TID 0000.0001) %MON ke_max                       =   1.3002037462995E-02
(PID.TID 0000.0001) %MON ke_mean                      =   2.4828648816093E-03
(PID.TID 0000.0001) %MON ke_vol                       =   7.2529629296391E+15
(PID.TID 0000.0001) %MON vort_r_min                   =  -4.4101479298795E-06
(PID.TID 0000.0001) %MON vort_r_max                   =   3.4611440187419E-06
(PID.TID 0000.0001) %MON vort_a_mean                  =   1.0615000000000E-04
(PID.TID 0000.0001) %MON vort_a_sd                    =   3.6446405438112E-06
(PID.TID 0000.0001) %MON vort_p_mean                  =   1.1210870169429E-04
(PID.TID 0000.0001) %MON vort_p_sd                    =   2.1071233145046E-05
(PID.TID 0000.0001) %MON surfExpan_theta_mean         =   7.7405334585799E-20
(PID.TID 0000.0001) %MON surfExpan_salt_mean          =   1.1614106566917E-19
(PID.TID 0000.0001) // =======================================================
(PID.TID 0000.0001) // End MONITOR dynamic field statistics
(PID.TID 0000.0001) // =======================================================
 cg2d: Sum(rhs),rhsMax =   4.35993519138785E-03  1.34486613794165E-02
 cg2d: Sum(rhs),rhsMax =   4.36158686295484E-03  1.34488578531236E-02
 cg2d: Sum(rhs),rhsMax =   4.36323996995666E-03  1.34490541189342E-02
 cg2d: Sum(rhs),rhsMax =   4.36489461135997E-03  1.34492501772929E-02
 cg2d: Sum(rhs),rhsMax =   4.36655089234293E-03  1.34494460270648E-02
 cg2d: Sum(rhs),rhsMax =   4.36820844352698E-03  1.34496416696127E-02
 cg2d: Sum(rhs),rhsMax =   4.36986765494985E-03  1.34498371045539E-02
 cg2d: Sum(rhs),rhsMax =   4.37152842281168E-03  1.34500323325693E-02
 cg2d: Sum(rhs),rhsMax =   4.37319084458411E-03  1.34502273507260E-02
 cg2d: Sum(rhs),rhsMax =   4.37485484954706E-03  1.34504221625754E-02
 cg2d: Sum(rhs),rhsMax =   4.37652023096423E-03  1.34506167646903E-02
 cg2d: Sum(rhs),rhsMax =   4.37818739904342E-03  1.34508111601742E-02
 cg2d: Sum(rhs),rhsMax =   4.37985616826130E-03  1.34510053468653E-02
 cg2d: Sum(rhs),rhsMax =   4.38152649992568E-03  1.34511993265303E-02
 cg2d: Sum(rhs),rhsMax =   4.38319839768428E-03  1.34513930977476E-02
 cg2d: Sum(rhs),rhsMax =   4.38487172003369E-03  1.34515866606224E-02
 cg2d: Sum(rhs),rhsMax =   4.38654669532381E-03  1.34517800143466E-02
 cg2d: Sum(rhs),rhsMax =   4.38822314848293E-03  1.34519731627241E-02
 cg2d: Sum(rhs),rhsMax =   4.38990134423524E-03  1.34521661007878E-02
 cg2d: Sum(rhs),rhsMax =   4.39158105825942E-03  1.34523588311279E-02
 cg2d: Sum(rhs),rhsMax =   4.39326249214185E-03  1.34525513517148E-02
 cg2d: Sum(rhs),rhsMax =   4.39494546484749E-03  1.34527436651233E-02
 cg2d: Sum(rhs),rhsMax =   4.39663013598899E-03  1.34529357706982E-02
 cg2d: Sum(rhs),rhsMax =   4.39831617068811E-03  1.34531276686168E-02
 cg2d: Sum(rhs),rhsMax =   4.40000397848314E-03  1.34533193568232E-02
 cg2d: Sum(rhs),rhsMax =   4.40169320362907E-03  1.34535108375586E-02
 cg2d: Sum(rhs),rhsMax =   4.40338413522277E-03  1.34537021095450E-02
 cg2d: Sum(rhs),rhsMax =   4.40500546843869E-03  1.34538931741095E-02
 cg2d: Sum(rhs),rhsMax =   4.40662821475154E-03  1.34540840295450E-02
 cg2d: Sum(rhs),rhsMax =   4.40825277269842E-03  1.34542746769859E-02
 cg2d: Sum(rhs),rhsMax =   4.40987854572180E-03  1.34544651150578E-02
 cg2d: Sum(rhs),rhsMax =   4.41150607449963E-03  1.34546553455842E-02
 cg2d: Sum(rhs),rhsMax =   4.41313473340509E-03  1.34548453676606E-02
 cg2d: Sum(rhs),rhsMax =   4.41476511296974E-03  1.34550351803861E-02
 cg2d: Sum(rhs),rhsMax =   4.41639708095771E-03  1.34552247835956E-02
 cg2d: Sum(rhs),rhsMax =   4.41803039078013E-03  1.34554141800432E-02
 cg2d: Sum(rhs),rhsMax =   4.41966535771146E-03  1.34556033685623E-02
 cg2d: Sum(rhs),rhsMax =   4.42130192965257E-03  1.34557923475997E-02
 cg2d: Sum(rhs),rhsMax =   4.42294004545388E-03  1.34559811173324E-02
 cg2d: Sum(rhs),rhsMax =   4.42457979278573E-03  1.34561696804963E-02
 cg2d: Sum(rhs),rhsMax =   4.42622086625687E-03  1.34563580334747E-02
 cg2d: Sum(rhs),rhsMax =   4.42786356127277E-03  1.34565461786809E-02
 cg2d: Sum(rhs),rhsMax =   4.42950789035010E-03  1.34567341150015E-02
 cg2d: Sum(rhs),rhsMax =   4.43115368827013E-03  1.34569218436080E-02
 cg2d: Sum(rhs),rhsMax =   4.43273228580175E-03  1.34571093662456E-02
 cg2d: Sum(rhs),rhsMax =   4.43431215557575E-03  1.34572966757981E-02
 cg2d: Sum(rhs),rhsMax =   4.43589381331702E-03  1.34574837793941E-02
 cg2d: Sum(rhs),rhsMax =   4.43747630291604E-03  1.34576706727748E-02
 cg2d: Sum(rhs),rhsMax =   4.43906075881867E-03  1.34578573585503E-02
 cg2d: Sum(rhs),rhsMax =   4.44064643526236E-03  1.34580438334427E-02
 cg2d: Sum(rhs),rhsMax =   4.44223384405788E-03  1.34582301040158E-02
 cg2d: Sum(rhs),rhsMax =   4.44382237567770E-03  1.34584161626246E-02
 cg2d: Sum(rhs),rhsMax =   4.44541257884202E-03  1.34586020157756E-02
 cg2d: Sum(rhs),rhsMax =   4.44700434013588E-03  1.34587876577296E-02
 cg2d: Sum(rhs),rhsMax =   4.44859754980951E-03  1.34589730939035E-02
 cg2d: Sum(rhs),rhsMax =   4.45012544121564E-03  1.34591583173725E-02
 cg2d: Sum(rhs),rhsMax =   4.45165480711587E-03  1.34593433351253E-02
 cg2d: Sum(rhs),rhsMax =   4.45318554682592E-03  1.34595281445597E-02
 cg2d: Sum(rhs),rhsMax =   4.45471753999660E-03  1.34597127440027E-02
 cg2d: Sum(rhs),rhsMax =   4.45625100951150E-03  1.34598971357229E-02
 cg2d: Sum(rhs),rhsMax =   4.45778596435408E-03  1.34600813197107E-02
 cg2d: Sum(rhs),rhsMax =   4.45932233932189E-03  1.34602652964353E-02
 cg2d: Sum(rhs),rhsMax =   4.46086010650360E-03  1.34604490624470E-02
 cg2d: Sum(rhs),rhsMax =   4.46239923473458E-03  1.34606326214544E-02
 cg2d: Sum(rhs),rhsMax =   4.46393981313228E-03  1.34608159718222E-02
 cg2d: Sum(rhs),rhsMax =   4.46548167976761E-03  1.34609991146566E-02
 cg2d: Sum(rhs),rhsMax =   4.46702503919966E-03  1.34611820480821E-02
 cg2d: Sum(rhs),rhsMax =   4.46856966448480E-03  1.34613647738433E-02
 cg2d: Sum(rhs),rhsMax =   4.47011586492053E-03  1.34615472914730E-02
 cg2d: Sum(rhs),rhsMax =   4.47166316068957E-03  1.34617296011687E-02
 cg2d: Sum(rhs),rhsMax =   4.47321215051842E-03  1.34619117016939E-02
 cg2d: Sum(rhs),rhsMax =   4.47476205163197E-03  1.34620935943405E-02
(PID.TID 0000.0001)      cg2d_init_res =   1.30584353667096E-03
(PID.TID 0000.0001)      cg2d_iters(min,last) =      -1     335
(PID.TID 0000.0001)      cg2d_last_res =   9.86456387927308E-08
(PID.TID 0000.0001) // =======================================================
(PID.TID 0000.0001) // Begin MONITOR dynamic field statistics
(PID.TID 0000.0001) // =======================================================
(PID.TID 0000.0001) %MON time_tsnumber                =                 19080
(PID.TID 0000.0001) %MON time_secondsf                =   2.2896000000000E+07
(PID.TID 0000.0001) %MON dynstat_eta_max              =   1.3573702340396E-01
(PID.TID 0000.0001) %MON dynstat_eta_min              =  -3.5109532681437E-01
(PID.TID 0000.0001) %MON dynstat_eta_mean             =  -2.8677093525321E-07
(PID.TID 0000.0001) %MON dynstat_eta_sd               =   1.2218434768929E-01
(PID.TID 0000.0001) %MON dynstat_eta_del2             =   7.3846686057240E-07
(PID.TID 0000.0001) %MON dynstat_uvel_max             =   1.3276370949925E-01
(PID.TID 0000.0001) %MON dynstat_uvel_min             =  -1.3245398336572E-01
(PID.TID 0000.0001) %MON dynstat_uvel_mean            =  -3.4910058212061E-08
(PID.TID 0000.0001) %MON dynstat_uvel_sd              =   5.1184690962611E-02
(PID.TID 0000.0001) %MON dynstat_uvel_del2            =   1.1106253301370E-06
(PID.TID 0000.0001) %MON dynstat_vvel_max             =   1.6149063568613E-01
(PID.TID 0000.0001) %MON dynstat_vvel_min             =  -1.2468446053483E-01
(PID.TID 0000.0001) %MON dynstat_vvel_mean            =  -7.4647083507279E-08
(PID.TID 0000.0001) %MON dynstat_vvel_sd              =   4.8789353282958E-02
(PID.TID 0000.0001) %MON dynstat_vvel_del2            =   1.2898156607745E-06
(PID.TID 0000.0001) %MON dynstat_wvel_max             =   5.7678880449384E-09
(PID.TID 0000.0001) %MON dynstat_wvel_min             =  -7.7547086798586E-09
(PID.TID 0000.0001) %MON dynstat_wvel_mean            =  -1.9767176234669E-21
(PID.TID 0000.0001) %MON dynstat_wvel_sd              =   2.2249230679164E-09
(PID.TID 0000.0001) %MON dynstat_wvel_del2            =   2.3283593714905E-14
(PID.TID 0000.0001) %MON dynstat_theta_max            =   2.0000000000000E+01
(PID.TID 0000.0001) %MON dynstat_theta_min            =   2.0000000000000E+01
(PID.TID 0000.0001) %MON dynstat_theta_mean           =   1.9999999999999E+01
(PID.TID 0000.0001) %MON dynstat_theta_sd             =   1.1972645097557E-12
(PID.TID 0000.0001) %MON dynstat_theta_del2           =   0.0000000000000E+00
(PID.TID 0000.0001) %MON dynstat_salt_max             =   3.0000000000000E+01
(PID.TID 0000.0001) %MON dynstat_salt_min             =   3.0000000000000E+01
(PID.TID 0000.0001) %MON dynstat_salt_mean            =   2.9999999999998E+01
(PID.TID 0000.0001) %MON dynstat_salt_sd              =   2.1529444893531E-12
(PID.TID 0000.0001) %MON dynstat_salt_del2            =   0.0000000000000E+00
(PID.TID 0000.0001) %MON trAdv_CFL_u_max              =   3.1862619263107E-02
(PID.TID 0000.0001) %MON trAdv_CFL_v_max              =   3.8756822314598E-02
(PID.TID 0000.0001) %MON trAdv_CFL_w_max              =   1.4786675428927E-09
(PID.TID 0000.0001) %MON advcfl_uvel_max              =   3.1863290279820E-02
(PID.TID 0000.0001) %MON advcfl_vvel_max              =   3.8757752564671E-02
(PID.TID 0000.0001) %MON advcfl_wvel_max              =   3.7222601663321E-09
(PID.TID 0000.0001) %MON advcfl_W_hf_max              =   0.0000000000000E+00
(PID.TID 0000.0001) %MON pe_b_mean                    =   1.5274426956766E-05
(PID.TID 0000.0001) %MON ke_max                       =   1.3046659532211E-02
(PID.TID 0000.0001) %MON ke_mean                      =   2.4888827241805E-03
(PID.TID 0000.0001) %MON ke_vol                       =   7.2529629296391E+15
(PID.TID 0000.0001) %MON vort_r_min                   =  -4.4147318424995E-06
(PID.TID 0000.0001) %MON vort_r_max                   =   3.4678464677860E-06
(PID.TID 0000.0001) %MON vort_a_mean                  =   1.0615000000000E-04
(PID.TID 0000.0001) %MON vort_a_sd                    =   3.6448207126604E-06
(PID.TID 0000.0001) %MON vort_p_mean                  =   1.1210870169429E-04
(PID.TID 0000.0001) %MON vort_p_sd                    =   2.1071279804924E-05
(PID.TID 0000.0001) %MON surfExpan_theta_mean         =  -3.9574966639365E-20
(PID.TID 0000.0001) %MON surfExpan_salt_mean          =  -5.9366958657748E-20
(PID.TID 0000.0001) // =======================================================
(PID.TID 0000.0001) // End MONITOR dynamic field statistics
(PID.TID 0000.0001) // =======================================================
 cg2d: Sum(rhs),rhsMax =   4.47631374584772E-03  1.34622752792583E-02
 cg2d: Sum(rhs),rhsMax =   4.47786602460033E-03  1.34624567554512E-02
 cg2d: Sum(rhs),rhsMax =   4.47942025080038E-03  1.34626380246154E-02
 cg2d: Sum(rhs),rhsMax =   4.48097589073200E-03  1.34628190836198E-02
 cg2d: Sum(rhs),rhsMax =   4.48253260306576E-03  1.34629999355928E-02
 cg2d: Sum(rhs),rhsMax =   4.48409118772662E-03  1.34631805807002E-02
 cg2d: Sum(rhs),rhsMax =   4.48565083174186E-03  1.34633610163034E-02
 cg2d: Sum(rhs),rhsMax =   4.48721229975893E-03  1.34635412447210E-02
 cg2d: Sum(rhs),rhsMax =   4.48877484942731E-03  1.34637212640608E-02
 cg2d: Sum(rhs),rhsMax =   4.49033911502383E-03  1.34639010783378E-02
 cg2d: Sum(rhs),rhsMax =   4.49183755070324E-03  1.34640806840390E-02
 cg2d: Sum(rhs),rhsMax =   4.49333701707383E-03  1.34642600809690E-02
 cg2d: Sum(rhs),rhsMax =   4.49483818930311E-03  1.34644392697533E-02
 cg2d: Sum(rhs),rhsMax =   4.49634038117111E-03  1.34646182508769E-02
 cg2d: Sum(rhs),rhsMax =   4.49784405295938E-03  1.34647970241023E-02
 cg2d: Sum(rhs),rhsMax =   4.49934874426128E-03  1.34649755896262E-02
 cg2d: Sum(rhs),rhsMax =   4.50085474450210E-03  1.34651539501200E-02
 cg2d: Sum(rhs),rhsMax =   4.50236240658987E-03  1.34653321015286E-02
 cg2d: Sum(rhs),rhsMax =   4.50387126543300E-03  1.34655100452659E-02
 cg2d: Sum(rhs),rhsMax =   4.50538147639997E-03  1.34656877811690E-02
 cg2d: Sum(rhs),rhsMax =   4.50689309931477E-03  1.34658653094595E-02
 cg2d: Sum(rhs),rhsMax =   4.50840580086445E-03  1.34660426311541E-02
 cg2d: Sum(rhs),rhsMax =   4.50991988061961E-03  1.34662197444194E-02
 cg2d: Sum(rhs),rhsMax =   4.51143521552009E-03  1.34663966495522E-02
 cg2d: Sum(rhs),rhsMax =   4.51295191706996E-03  1.34665733498227E-02
 cg2d: Sum(rhs),rhsMax =   4.51446986640884E-03  1.34667498431137E-02
 cg2d: Sum(rhs),rhsMax =   4.51598912322873E-03  1.34669261285048E-02
 cg2d: Sum(rhs),rhsMax =   4.51750960863652E-03  1.34671022068395E-02
 cg2d: Sum(rhs),rhsMax =   4.51903153792705E-03  1.34672780766521E-02
 cg2d: Sum(rhs),rhsMax =   4.52055458718725E-03  1.34674537388075E-02
 cg2d: Sum(rhs),rhsMax =   4.52207895657883E-03  1.34676291967499E-02
 cg2d: Sum(rhs),rhsMax =   4.52360465845237E-03  1.34678044482837E-02
 cg2d: Sum(rhs),rhsMax =   4.52513165035583E-03  1.34679794919119E-02
 cg2d: Sum(rhs),rhsMax =   4.52665975979163E-03  1.34681543281140E-02
 cg2d: Sum(rhs),rhsMax =   4.52818932715516E-03  1.34683289582928E-02
 cg2d: Sum(rhs),rhsMax =   4.52971991951818E-03  1.34685033822147E-02
 cg2d: Sum(rhs),rhsMax =   4.53125202563902E-03  1.34686775980875E-02
 cg2d: Sum(rhs),rhsMax =   4.53278533162970E-03  1.34688516073741E-02
 cg2d: Sum(rhs),rhsMax =   4.53425443914418E-03  1.34690254128856E-02
 cg2d: Sum(rhs),rhsMax =   4.53572462240666E-03  1.34691990094140E-02
 cg2d: Sum(rhs),rhsMax =   4.53719630670014E-03  1.34693724022347E-02
 cg2d: Sum(rhs),rhsMax =   4.53866874864809E-03  1.34695455851771E-02
 cg2d: Sum(rhs),rhsMax =   4.54014278350606E-03  1.34697185655092E-02
 cg2d: Sum(rhs),rhsMax =   4.54161737920985E-03  1.34698913366989E-02
 cg2d: Sum(rhs),rhsMax =   4.54309367403519E-03  1.34700639040984E-02
 cg2d: Sum(rhs),rhsMax =   4.54457102430912E-03  1.34702362634258E-02
 cg2d: Sum(rhs),rhsMax =   4.54604965403257E-03  1.34704084189019E-02
 cg2d: Sum(rhs),rhsMax =   4.54752936144359E-03  1.34705803655663E-02
 cg2d: Sum(rhs),rhsMax =   4.54901024053863E-03  1.34707521093839E-02
 cg2d: Sum(rhs),rhsMax =   4.55049243151320E-03  1.34709236465663E-02
 cg2d: Sum(rhs),rhsMax =   4.55197576801111E-03  1.34710949799866E-02
 cg2d: Sum(rhs),rhsMax =   4.55346042286201E-03  1.34712661044484E-02
 cg2d: Sum(rhs),rhsMax =   4.55494608189679E-03  1.34714370254832E-02
 cg2d: Sum(rhs),rhsMax =   4.55643287108311E-03  1.34716077402978E-02
 cg2d: Sum(rhs),rhsMax =   4.55792089018771E-03  1.34717782515788E-02
 cg2d: Sum(rhs),rhsMax =   4.55940994322877E-03  1.34719485546476E-02
 cg2d: Sum(rhs),rhsMax =   4.56090034360338E-03  1.34721186545607E-02
 cg2d: Sum(rhs),rhsMax =   4.56239180927197E-03  1.34722885488172E-02
 cg2d: Sum(rhs),rhsMax =   4.56388446643218E-03  1.34724582388558E-02
 cg2d: Sum(rhs),rhsMax =   4.56531482763066E-03  1.34726277278636E-02
 cg2d: Sum(rhs),rhsMax =   4.56674594274989E-03  1.34727970047063E-02
 cg2d: Sum(rhs),rhsMax =   4.56817847078645E-03  1.34729660806874E-02
 cg2d: Sum(rhs),rhsMax =   4.56961194080074E-03  1.34731349491905E-02
 cg2d: Sum(rhs),rhsMax =   4.57104658441898E-03  1.34733036155338E-02
 cg2d: Sum(rhs),rhsMax =   4.57248218553704E-03  1.34734720744959E-02
 cg2d: Sum(rhs),rhsMax =   4.57391892258946E-03  1.34736403328873E-02
 cg2d: Sum(rhs),rhsMax =   4.57535658370386E-03  1.34738083850640E-02
 cg2d: Sum(rhs),rhsMax =   4.57679546075335E-03  1.34739762331051E-02
 cg2d: Sum(rhs),rhsMax =   4.57823530634499E-03  1.34741438765396E-02
 cg2d: Sum(rhs),rhsMax =   4.57967625974678E-03  1.34743113175787E-02
 cg2d: Sum(rhs),rhsMax =   4.58111823729012E-03  1.34744785536505E-02
 cg2d: Sum(rhs),rhsMax =   4.58256099496574E-03  1.34746455862093E-02
(PID.TID 0000.0001)      cg2d_init_res =   1.29946827850514E-03
(PID.TID 0000.0001)      cg2d_iters(min,last) =      -1     338
(PID.TID 0000.0001)      cg2d_last_res =   9.77623415676345E-08
(PID.TID 0000.0001) // =======================================================
(PID.TID 0000.0001) // Begin MONITOR dynamic field statistics
(PID.TID 0000.0001) // =======================================================
(PID.TID 0000.0001) %MON time_tsnumber                =                 19152
(PID.TID 0000.0001) %MON time_secondsf                =   2.2982400000000E+07
(PID.TID 0000.0001) %MON dynstat_eta_max              =   1.3593280070372E-01
(PID.TID 0000.0001) %MON dynstat_eta_min              =  -3.5167794205615E-01
(PID.TID 0000.0001) %MON dynstat_eta_mean             =  -2.9394357559025E-07
(PID.TID 0000.0001) %MON dynstat_eta_sd               =   1.2232443664236E-01
(PID.TID 0000.0001) %MON dynstat_eta_del2             =   7.3925353347639E-07
(PID.TID 0000.0001) %MON dynstat_uvel_max             =   1.3295950653217E-01
(PID.TID 0000.0001) %MON dynstat_uvel_min             =  -1.3252201127491E-01
(PID.TID 0000.0001) %MON dynstat_uvel_mean            =  -4.4174547287848E-08
(PID.TID 0000.0001) %MON dynstat_uvel_sd              =   5.1250151469179E-02
(PID.TID 0000.0001) %MON dynstat_uvel_del2            =   1.1115724531907E-06
(PID.TID 0000.0001) %MON dynstat_vvel_max             =   1.6177030156832E-01
(PID.TID 0000.0001) %MON dynstat_vvel_min             =  -1.2472410149827E-01
(PID.TID 0000.0001) %MON dynstat_vvel_mean            =  -6.7269983423094E-08
(PID.TID 0000.0001) %MON dynstat_vvel_sd              =   4.8844733596458E-02
(PID.TID 0000.0001) %MON dynstat_vvel_del2            =   1.2920728976930E-06
(PID.TID 0000.0001) %MON dynstat_wvel_max             =   5.8717266516760E-09
(PID.TID 0000.0001) %MON dynstat_wvel_min             =  -7.7185621298850E-09
(PID.TID 0000.0001) %MON dynstat_wvel_mean            =   3.1965867569279E-21
(PID.TID 0000.0001) %MON dynstat_wvel_sd              =   2.2078398768588E-09
(PID.TID 0000.0001) %MON dynstat_wvel_del2            =   2.2932342963380E-14
(PID.TID 0000.0001) %MON dynstat_theta_max            =   2.0000000000000E+01
(PID.TID 0000.0001) %MON dynstat_theta_min            =   2.0000000000000E+01
(PID.TID 0000.0001) %MON dynstat_theta_mean           =   1.9999999999999E+01
(PID.TID 0000.0001) %MON dynstat_theta_sd             =   1.1972645097557E-12
(PID.TID 0000.0001) %MON dynstat_theta_del2           =   0.0000000000000E+00
(PID.TID 0000.0001) %MON dynstat_salt_max             =   3.0000000000000E+01
(PID.TID 0000.0001) %MON dynstat_salt_min             =   3.0000000000000E+01
(PID.TID 0000.0001) %MON dynstat_salt_mean            =   2.9999999999998E+01
(PID.TID 0000.0001) %MON dynstat_salt_sd              =   2.1529444893531E-12
(PID.TID 0000.0001) %MON dynstat_salt_del2            =   0.0000000000000E+00
(PID.TID 0000.0001) %MON trAdv_CFL_u_max              =   3.1909647452619E-02
(PID.TID 0000.0001) %MON trAdv_CFL_v_max              =   3.8823937681256E-02
(PID.TID 0000.0001) %MON trAdv_CFL_w_max              =   1.4987176933607E-09
(PID.TID 0000.0001) %MON advcfl_uvel_max              =   3.1910281567721E-02
(PID.TID 0000.0001) %MON advcfl_vvel_max              =   3.8824872376397E-02
(PID.TID 0000.0001) %MON advcfl_wvel_max              =   3.7049098223448E-09
(PID.TID 0000.0001) %MON advcfl_W_hf_max              =   0.0000000000000E+00
(PID.TID 0000.0001) %MON pe_b_mean                    =   1.5309472446472E-05
(PID.TID 0000.0001) %MON ke_max                       =   1.3091429484862E-02
(PID.TID 0000.0001) %MON ke_mean                      =   2.4949116843302E-03
(PID.TID 0000.0001) %MON ke_vol                       =   7.2529629296391E+15
(PID.TID 0000.0001) %MON vort_r_min                   =  -4.4190780604360E-06
(PID.TID 0000.0001) %MON vort_r_max                   =   3.4759356463940E-06
(PID.TID 0000.0001) %MON vort_a_mean                  =   1.0615000000000E-04
(PID.TID 0000.0001) %MON vort_a_sd                    =   3.6450029868659E-06
(PID.TID 0000.0001) %MON vort_p_mean                  =   1.1210870169429E-04
(PID.TID 0000.0001) %MON vort_p_sd                    =   2.1071332204333E-05
(PID.TID 0000.0001) %MON surfExpan_theta_mean         =   6.3880506552589E-20
(PID.TID 0000.0001) %MON surfExpan_salt_mean          =   9.5818956347110E-20
(PID.TID 0000.0001) // =======================================================
(PID.TID 0000.0001) // End MONITOR dynamic field statistics
(PID.TID 0000.0001) // =======================================================
 cg2d: Sum(rhs),rhsMax =   4.58400515342639E-03  1.34748124127734E-02
 cg2d: Sum(rhs),rhsMax =   4.58545038244959E-03  1.34749790380888E-02
 cg2d: Sum(rhs),rhsMax =   4.58689659689158E-03  1.34751454576689E-02
 cg2d: Sum(rhs),rhsMax =   4.58834383433559E-03  1.34753116761024E-02
 cg2d: Sum(rhs),rhsMax =   4.58979196011679E-03  1.34754776887260E-02
 cg2d: Sum(rhs),rhsMax =   4.59124123120531E-03  1.34756435001397E-02
 cg2d: Sum(rhs),rhsMax =   4.59269121581113E-03  1.34758091077546E-02
 cg2d: Sum(rhs),rhsMax =   4.59414246899847E-03  1.34759745135432E-02
 cg2d: Sum(rhs),rhsMax =   4.59559468801277E-03  1.34761397130844E-02
 cg2d: Sum(rhs),rhsMax =   4.59704786174409E-03  1.34763047113671E-02
 cg2d: Sum(rhs),rhsMax =   4.59850212341243E-03  1.34764695067734E-02
 cg2d: Sum(rhs),rhsMax =   4.59995728391185E-03  1.34766341004590E-02
 cg2d: Sum(rhs),rhsMax =   4.60141352881896E-03  1.34767984897540E-02
 cg2d: Sum(rhs),rhsMax =   4.60287069898457E-03  1.34769626781348E-02
 cg2d: Sum(rhs),rhsMax =   4.60432891872652E-03  1.34771266629559E-02
 cg2d: Sum(rhs),rhsMax =   4.60578783213713E-03  1.34772904466898E-02
 cg2d: Sum(rhs),rhsMax =   4.60724790109170E-03  1.34774540269919E-02
 cg2d: Sum(rhs),rhsMax =   4.60870891854454E-03  1.34776174065877E-02
 cg2d: Sum(rhs),rhsMax =   4.61010877589132E-03  1.34777805827798E-02
 cg2d: Sum(rhs),rhsMax =   4.61150942216664E-03  1.34779435570410E-02
 cg2d: Sum(rhs),rhsMax =   4.61291114371752E-03  1.34781063308348E-02
 cg2d: Sum(rhs),rhsMax =   4.61431352671073E-03  1.34782689008080E-02
 cg2d: Sum(rhs),rhsMax =   4.61571708136841E-03  1.34784312718384E-02
 cg2d: Sum(rhs),rhsMax =   4.61712119565095E-03  1.34785934398119E-02
 cg2d: Sum(rhs),rhsMax =   4.61852647916409E-03  1.34787554085448E-02
 cg2d: Sum(rhs),rhsMax =   4.61993239344920E-03  1.34789171738631E-02
 cg2d: Sum(rhs),rhsMax =   4.62133920388900E-03  1.34790787402328E-02
 cg2d: Sum(rhs),rhsMax =   4.62274698077525E-03  1.34792401039732E-02
 cg2d: Sum(rhs),rhsMax =   4.62415552742204E-03  1.34794012682381E-02
 cg2d: Sum(rhs),rhsMax =   4.62556511903253E-03  1.34795622303713E-02
 cg2d: Sum(rhs),rhsMax =   4.62697548431936E-03  1.34797229939401E-02
 cg2d: Sum(rhs),rhsMax =   4.62838669260992E-03  1.34798835547966E-02
 cg2d: Sum(rhs),rhsMax =   4.62979875034849E-03  1.34800439166149E-02
 cg2d: Sum(rhs),rhsMax =   4.63121133548665E-03  1.34802040749830E-02
 cg2d: Sum(rhs),rhsMax =   4.63262495665915E-03  1.34803640379131E-02
 cg2d: Sum(rhs),rhsMax =   4.63403949234535E-03  1.34805237969499E-02
 cg2d: Sum(rhs),rhsMax =   4.63545487078599E-03  1.34806833589548E-02
 cg2d: Sum(rhs),rhsMax =   4.63687102918470E-03  1.34808427188201E-02
 cg2d: Sum(rhs),rhsMax =   4.63828797144061E-03  1.34810018812098E-02
 cg2d: Sum(rhs),rhsMax =   4.63970570098277E-03  1.34811608428340E-02
 cg2d: Sum(rhs),rhsMax =   4.64112397733198E-03  1.34813196067402E-02
 cg2d: Sum(rhs),rhsMax =   4.64254333091401E-03  1.34814781698307E-02
 cg2d: Sum(rhs),rhsMax =   4.64396324682063E-03  1.34816365352558E-02
 cg2d: Sum(rhs),rhsMax =   4.64538417869830E-03  1.34817947004482E-02
 cg2d: Sum(rhs),rhsMax =   4.64680578362136E-03  1.34819526679678E-02
 cg2d: Sum(rhs),rhsMax =   4.64822829594857E-03  1.34821104351215E-02
 cg2d: Sum(rhs),rhsMax =   4.64965145312507E-03  1.34822680054427E-02
 cg2d: Sum(rhs),rhsMax =   4.65107540816905E-03  1.34824253759578E-02
 cg2d: Sum(rhs),rhsMax =   4.65250002252253E-03  1.34825825495510E-02
 cg2d: Sum(rhs),rhsMax =   4.65392507255268E-03  1.34827395253159E-02
 cg2d: Sum(rhs),rhsMax =   4.65535122254667E-03  1.34828963023648E-02
 cg2d: Sum(rhs),rhsMax =   4.65671812517047E-03  1.34830528794893E-02
 cg2d: Sum(rhs),rhsMax =   4.65808547031206E-03  1.34832092614979E-02
 cg2d: Sum(rhs),rhsMax =   4.65945380111200E-03  1.34833654435193E-02
 cg2d: Sum(rhs),rhsMax =   4.66082261688069E-03  1.34835214305515E-02
 cg2d: Sum(rhs),rhsMax =   4.66219222702498E-03  1.34836772179179E-02
 cg2d: Sum(rhs),rhsMax =   4.66356238927302E-03  1.34838328087850E-02
 cg2d: Sum(rhs),rhsMax =   4.66493330020404E-03  1.34839882034596E-02
 cg2d: Sum(rhs),rhsMax =   4.66630469943874E-03  1.34841434017528E-02
 cg2d: Sum(rhs),rhsMax =   4.66767685174224E-03  1.34842984020117E-02
 cg2d: Sum(rhs),rhsMax =   4.66904946623597E-03  1.34844532067947E-02
 cg2d: Sum(rhs),rhsMax =   4.67042282180914E-03  1.34846078148532E-02
 cg2d: Sum(rhs),rhsMax =   4.67179684731642E-03  1.34847622266443E-02
 cg2d: Sum(rhs),rhsMax =   4.67317144374368E-03  1.34849164412501E-02
 cg2d: Sum(rhs),rhsMax =   4.67454679495076E-03  1.34850704600345E-02
 cg2d: Sum(rhs),rhsMax =   4.67592265041508E-03  1.34852242830562E-02
 cg2d: Sum(rhs),rhsMax =   4.67729903861855E-03  1.34853779105005E-02
 cg2d: Sum(rhs),rhsMax =   4.67867586849573E-03  1.34855313411797E-02
 cg2d: Sum(rhs),rhsMax =   4.68005347330494E-03  1.34856845776175E-02
 cg2d: Sum(rhs),rhsMax =   4.68143157888630E-03  1.34858376190860E-02
 cg2d: Sum(rhs),rhsMax =   4.68281034992388E-03  1.34859904662992E-02
 cg2d: Sum(rhs),rhsMax =   4.68418948843987E-03  1.34861431180392E-02
(PID.TID 0000.0001)      cg2d_init_res =   1.29516912390203E-03
(PID.TID 0000.0001)      cg2d_iters(min,last) =      -1     340
(PID.TID 0000.0001)      cg2d_last_res =   9.94672861513830E-08
(PID.TID 0000.0001) // =======================================================
(PID.TID 0000.0001) // Begin MONITOR dynamic field statistics
(PID.TID 0000.0001) // =======================================================
(PID.TID 0000.0001) %MON time_tsnumber                =                 19224
(PID.TID 0000.0001) %MON time_secondsf                =   2.3068800000000E+07
(PID.TID 0000.0001) %MON dynstat_eta_max              =   1.3616458360881E-01
(PID.TID 0000.0001) %MON dynstat_eta_min              =  -3.5226580982025E-01
(PID.TID 0000.0001) %MON dynstat_eta_mean             =  -3.0071229484799E-07
(PID.TID 0000.0001) %MON dynstat_eta_sd               =   1.2246372992207E-01
(PID.TID 0000.0001) %MON dynstat_eta_del2             =   7.4004727500543E-07
(PID.TID 0000.0001) %MON dynstat_uvel_max             =   1.3314368883350E-01
(PID.TID 0000.0001) %MON dynstat_uvel_min             =  -1.3258412896920E-01
(PID.TID 0000.0001) %MON dynstat_uvel_mean            =  -5.1405746508869E-08
(PID.TID 0000.0001) %MON dynstat_uvel_sd              =   5.1312297130367E-02
(PID.TID 0000.0001) %MON dynstat_uvel_del2            =   1.1123828336402E-06
(PID.TID 0000.0001) %MON dynstat_vvel_max             =   1.6205178228745E-01
(PID.TID 0000.0001) %MON dynstat_vvel_min             =  -1.2476590464387E-01
(PID.TID 0000.0001) %MON dynstat_vvel_mean            =  -5.8521051520076E-08
(PID.TID 0000.0001) %MON dynstat_vvel_sd              =   4.8903531544527E-02
(PID.TID 0000.0001) %MON dynstat_vvel_del2            =   1.2945258779665E-06
(PID.TID 0000.0001) %MON dynstat_wvel_max             =   5.9517732914537E-09
(PID.TID 0000.0001) %MON dynstat_wvel_min             =  -7.6563801569864E-09
(PID.TID 0000.0001) %MON dynstat_wvel_mean            =   4.7871878063802E-21
(PID.TID 0000.0001) %MON dynstat_wvel_sd              =   2.1891642465433E-09
(PID.TID 0000.0001) %MON dynstat_wvel_del2            =   2.3007000273573E-14
(PID.TID 0000.0001) %MON dynstat_theta_max            =   2.0000000000000E+01
(PID.TID 0000.0001) %MON dynstat_theta_min            =   2.0000000000000E+01
(PID.TID 0000.0001) %MON dynstat_theta_mean           =   1.9999999999999E+01
(PID.TID 0000.0001) %MON dynstat_theta_sd             =   1.1972645097557E-12
(PID.TID 0000.0001) %MON dynstat_theta_del2           =   0.0000000000000E+00
(PID.TID 0000.0001) %MON dynstat_salt_max             =   3.0000000000000E+01
(PID.TID 0000.0001) %MON dynstat_salt_min             =   3.0000000000000E+01
(PID.TID 0000.0001) %MON dynstat_salt_mean            =   2.9999999999998E+01
(PID.TID 0000.0001) %MON dynstat_salt_sd              =   2.1529444893531E-12
(PID.TID 0000.0001) %MON dynstat_salt_del2            =   0.0000000000000E+00
(PID.TID 0000.0001) %MON trAdv_CFL_u_max              =   3.1953891392614E-02
(PID.TID 0000.0001) %MON trAdv_CFL_v_max              =   3.8891485565650E-02
(PID.TID 0000.0001) %MON trAdv_CFL_w_max              =   1.5147575631723E-09
(PID.TID 0000.0001) %MON advcfl_uvel_max              =   3.1954485320039E-02
(PID.TID 0000.0001) %MON advcfl_vvel_max              =   3.8892427748988E-02
(PID.TID 0000.0001) %MON advcfl_wvel_max              =   3.6750624753535E-09
(PID.TID 0000.0001) %MON advcfl_W_hf_max              =   0.0000000000000E+00
(PID.TID 0000.0001) %MON pe_b_mean                    =   1.5344358702244E-05
(PID.TID 0000.0001) %MON ke_max                       =   1.3136518410311E-02
(PID.TID 0000.0001) %MON ke_mean                      =   2.5009450075430E-03
(PID.TID 0000.0001) %MON ke_vol                       =   7.2529629296391E+15
(PID.TID 0000.0001) %MON vort_r_min                   =  -4.4230808181383E-06
(PID.TID 0000.0001) %MON vort_r_max                   =   3.4851747638508E-06
(PID.TID 0000.0001) %MON vort_a_mean                  =   1.0615000000000E-04
(PID.TID 0000.0001) %MON vort_a_sd                    =   3.6451862962456E-06
(PID.TID 0000.0001) %MON vort_p_mean                  =   1.1210870169429E-04
(PID.TID 0000.0001) %MON vort_p_sd                    =   2.1071390553392E-05
(PID.TID 0000.0001) %MON surfExpan_theta_mean         =   9.5732443351695E-20
(PID.TID 0000.0001) %MON surfExpan_salt_mean          =   1.4358543951136E-19
(PID.TID 0000.0001) // =======================================================
(PID.TID 0000.0001) // End MONITOR dynamic field statistics
(PID.TID 0000.0001) // =======================================================
 cg2d: Sum(rhs),rhsMax =   4.68556928348403E-03  1.34862955720337E-02
 cg2d: Sum(rhs),rhsMax =   4.68694961583046E-03  1.34864478330086E-02
 cg2d: Sum(rhs),rhsMax =   4.68833057909705E-03  1.34865999006337E-02
 cg2d: Sum(rhs),rhsMax =   4.68971203811954E-03  1.34867517730425E-02
 cg2d: Sum(rhs),rhsMax =   4.69109403746985E-03  1.34869034515261E-02
 cg2d: Sum(rhs),rhsMax =   4.69241927730413E-03  1.34870549419436E-02
 cg2d: Sum(rhs),rhsMax =   4.69374502753192E-03  1.34872062285459E-02
 cg2d: Sum(rhs),rhsMax =   4.69507152637341E-03  1.34873573277923E-02
 cg2d: Sum(rhs),rhsMax =   4.69639843949007E-03  1.34875082280425E-02
 cg2d: Sum(rhs),rhsMax =   4.69772594758922E-03  1.34876589409185E-02
 cg2d: Sum(rhs),rhsMax =   4.69905380298313E-03  1.34878094550752E-02
 cg2d: Sum(rhs),rhsMax =   4.70038213031006E-03  1.34879597813189E-02
 cg2d: Sum(rhs),rhsMax =   4.70171059772371E-03  1.34881099100735E-02
 cg2d: Sum(rhs),rhsMax =   4.70303977057940E-03  1.34882598504552E-02
 cg2d: Sum(rhs),rhsMax =   4.70436935658749E-03  1.34884095938204E-02
 cg2d: Sum(rhs),rhsMax =   4.70569919654199E-03  1.34885591497683E-02
 cg2d: Sum(rhs),rhsMax =   4.70702961914524E-03  1.34887085081774E-02
 cg2d: Sum(rhs),rhsMax =   4.70836025376641E-03  1.34888576775863E-02
 cg2d: Sum(rhs),rhsMax =   4.70969138987040E-03  1.34890066536945E-02
 cg2d: Sum(rhs),rhsMax =   4.71102299980291E-03  1.34891554412033E-02
 cg2d: Sum(rhs),rhsMax =   4.71235494537337E-03  1.34893040316874E-02
 cg2d: Sum(rhs),rhsMax =   4.71368737013419E-03  1.34894524347284E-02
 cg2d: Sum(rhs),rhsMax =   4.71501992247601E-03  1.34896006438656E-02
 cg2d: Sum(rhs),rhsMax =   4.71635297831727E-03  1.34897486649219E-02
 cg2d: Sum(rhs),rhsMax =   4.71768637675532E-03  1.34898964917407E-02
 cg2d: Sum(rhs),rhsMax =   4.71902003673854E-03  1.34900441313961E-02
 cg2d: Sum(rhs),rhsMax =   4.72035401452774E-03  1.34901915784730E-02
 cg2d: Sum(rhs),rhsMax =   4.72168821487374E-03  1.34903388360634E-02
 cg2d: Sum(rhs),rhsMax =   4.72296784534477E-03  1.34904859028960E-02
 cg2d: Sum(rhs),rhsMax =   4.72424760179301E-03  1.34906327782816E-02
 cg2d: Sum(rhs),rhsMax =   4.72552792968249E-03  1.34907794668090E-02
 cg2d: Sum(rhs),rhsMax =   4.72680834463566E-03  1.34909259616818E-02
 cg2d: Sum(rhs),rhsMax =   4.72808918994523E-03  1.34910722707162E-02
 cg2d: Sum(rhs),rhsMax =   4.72937006811351E-03  1.34912183867333E-02
 cg2d: Sum(rhs),rhsMax =   4.73065135364547E-03  1.34913643182064E-02
 cg2d: Sum(rhs),rhsMax =   4.73193275569395E-03  1.34915100597580E-02
 cg2d: Sum(rhs),rhsMax =   4.73321429324521E-03  1.34916556121158E-02
 cg2d: Sum(rhs),rhsMax =   4.73449637759297E-03  1.34918009755140E-02
 cg2d: Sum(rhs),rhsMax =   4.73577853643305E-03  1.34919461507585E-02
 cg2d: Sum(rhs),rhsMax =   4.73706101034496E-03  1.34920911375696E-02
 cg2d: Sum(rhs),rhsMax =   4.73834346052796E-03  1.34922359356156E-02
 cg2d: Sum(rhs),rhsMax =   4.73962602922351E-03  1.34923805450742E-02
 cg2d: Sum(rhs),rhsMax =   4.74090904120495E-03  1.34925249698848E-02
 cg2d: Sum(rhs),rhsMax =   4.74219221033805E-03  1.34926692043794E-02
 cg2d: Sum(rhs),rhsMax =   4.74347563379789E-03  1.34928132541428E-02
 cg2d: Sum(rhs),rhsMax =   4.74475909419175E-03  1.34929571135884E-02
 cg2d: Sum(rhs),rhsMax =   4.74604234613027E-03  1.34931007890037E-02
 cg2d: Sum(rhs),rhsMax =   4.74732620334829E-03  1.34932442775644E-02
 cg2d: Sum(rhs),rhsMax =   4.74861016445950E-03  1.34933875789161E-02
 cg2d: Sum(rhs),rhsMax =   4.74989430434712E-03  1.34935306954755E-02
 cg2d: Sum(rhs),rhsMax =   4.75117802411525E-03  1.34936736244816E-02
 cg2d: Sum(rhs),rhsMax =   4.75246234816400E-03  1.34938163647948E-02
 cg2d: Sum(rhs),rhsMax =   4.75374677072044E-03  1.34939589217368E-02
 cg2d: Sum(rhs),rhsMax =   4.75497757355555E-03  1.34941012983639E-02
 cg2d: Sum(rhs),rhsMax =   4.75620839261479E-03  1.34942434819666E-02
 cg2d: Sum(rhs),rhsMax =   4.75743945226796E-03  1.34943854858984E-02
 cg2d: Sum(rhs),rhsMax =   4.75866992373207E-03  1.34945272974547E-02
 cg2d: Sum(rhs),rhsMax =   4.75990099595717E-03  1.34946689329420E-02
 cg2d: Sum(rhs),rhsMax =   4.76113187101718E-03  1.34948103772715E-02
 cg2d: Sum(rhs),rhsMax =   4.76236311836891E-03  1.34949516426137E-02
 cg2d: Sum(rhs),rhsMax =   4.76359428512622E-03  1.34950927175619E-02
 cg2d: Sum(rhs),rhsMax =   4.76482553445314E-03  1.34952336149862E-02
 cg2d: Sum(rhs),rhsMax =   4.76605674744485E-03  1.34953743223196E-02
 cg2d: Sum(rhs),rhsMax =   4.76728786956788E-03  1.34955148511789E-02
 cg2d: Sum(rhs),rhsMax =   4.76851859895966E-03  1.34956551944460E-02
 cg2d: Sum(rhs),rhsMax =   4.76974978285263E-03  1.34957953578361E-02
 cg2d: Sum(rhs),rhsMax =   4.77098070195228E-03  1.34959353330239E-02
 cg2d: Sum(rhs),rhsMax =   4.77221195658294E-03  1.34960751297520E-02
 cg2d: Sum(rhs),rhsMax =   4.77344286947889E-03  1.34962147391655E-02
 cg2d: Sum(rhs),rhsMax =   4.77467402342891E-03  1.34963541711766E-02
 cg2d: Sum(rhs),rhsMax =   4.77590499035170E-03  1.34964934146899E-02
 cg2d: Sum(rhs),rhsMax =   4.77713593430405E-03  1.34966324825498E-02
(PID.TID 0000.0001)      cg2d_init_res =   1.29225445647193E-03
(PID.TID 0000.0001)      cg2d_iters(min,last) =      -1     343
(PID.TID 0000.0001)      cg2d_last_res =   9.99028491275455E-08
(PID.TID 0000.0001) // =======================================================
(PID.TID 0000.0001) // Begin MONITOR dynamic field statistics
(PID.TID 0000.0001) // =======================================================
(PID.TID 0000.0001) %MON time_tsnumber                =                 19296
(PID.TID 0000.0001) %MON time_secondsf                =   2.3155200000000E+07
(PID.TID 0000.0001) %MON dynstat_eta_max              =   1.3643636230825E-01
(PID.TID 0000.0001) %MON dynstat_eta_min              =  -3.5285703483796E-01
(PID.TID 0000.0001) %MON dynstat_eta_mean             =  -3.0690610273832E-07
(PID.TID 0000.0001) %MON dynstat_eta_sd               =   1.2260189413855E-01
(PID.TID 0000.0001) %MON dynstat_eta_del2             =   7.4084378461820E-07
(PID.TID 0000.0001) %MON dynstat_uvel_max             =   1.3331554745638E-01
(PID.TID 0000.0001) %MON dynstat_uvel_min             =  -1.3264003761225E-01
(PID.TID 0000.0001) %MON dynstat_uvel_mean            =  -5.6374456617760E-08
(PID.TID 0000.0001) %MON dynstat_uvel_sd              =   5.1370741938802E-02
(PID.TID 0000.0001) %MON dynstat_uvel_del2            =   1.1130573830865E-06
(PID.TID 0000.0001) %MON dynstat_vvel_max             =   1.6233587397244E-01
(PID.TID 0000.0001) %MON dynstat_vvel_min             =  -1.2481336157601E-01
(PID.TID 0000.0001) %MON dynstat_vvel_mean            =  -4.8777202006396E-08
(PID.TID 0000.0001) %MON dynstat_vvel_sd              =   4.8965992844524E-02
(PID.TID 0000.0001) %MON dynstat_vvel_del2            =   1.2970988446583E-06
(PID.TID 0000.0001) %MON dynstat_wvel_max             =   5.9838822484016E-09
(PID.TID 0000.0001) %MON dynstat_wvel_min             =  -7.5723164691590E-09
(PID.TID 0000.0001) %MON dynstat_wvel_mean            =  -1.0553386477484E-20
(PID.TID 0000.0001) %MON dynstat_wvel_sd              =   2.1689514002592E-09
(PID.TID 0000.0001) %MON dynstat_wvel_del2            =   2.3183463974773E-14
(PID.TID 0000.0001) %MON dynstat_theta_max            =   2.0000000000000E+01
(PID.TID 0000.0001) %MON dynstat_theta_min            =   2.0000000000000E+01
(PID.TID 0000.0001) %MON dynstat_theta_mean           =   1.9999999999999E+01
(PID.TID 0000.0001) %MON dynstat_theta_sd             =   1.1972645097557E-12
(PID.TID 0000.0001) %MON dynstat_theta_del2           =   0.0000000000000E+00
(PID.TID 0000.0001) %MON dynstat_salt_max             =   3.0000000000000E+01
(PID.TID 0000.0001) %MON dynstat_salt_min             =   3.0000000000000E+01
(PID.TID 0000.0001) %MON dynstat_salt_mean            =   2.9999999999998E+01
(PID.TID 0000.0001) %MON dynstat_salt_sd              =   2.1529444893531E-12
(PID.TID 0000.0001) %MON dynstat_salt_del2            =   0.0000000000000E+00
(PID.TID 0000.0001) %MON trAdv_CFL_u_max              =   3.1995179098391E-02
(PID.TID 0000.0001) %MON trAdv_CFL_v_max              =   3.8959657819065E-02
(PID.TID 0000.0001) %MON trAdv_CFL_w_max              =   1.5194374439757E-09
(PID.TID 0000.0001) %MON advcfl_uvel_max              =   3.1995731389531E-02
(PID.TID 0000.0001) %MON advcfl_vvel_max              =   3.8960609753386E-02
(PID.TID 0000.0001) %MON advcfl_wvel_max              =   3.6347119051963E-09
(PID.TID 0000.0001) %MON advcfl_W_hf_max              =   0.0000000000000E+00
(PID.TID 0000.0001) %MON pe_b_mean                    =   1.5379001403718E-05
(PID.TID 0000.0001) %MON ke_max                       =   1.3182064876637E-02
(PID.TID 0000.0001) %MON ke_mean                      =   2.5069749160324E-03
(PID.TID 0000.0001) %MON ke_vol                       =   7.2529629296391E+15
(PID.TID 0000.0001) %MON vort_r_min                   =  -4.4267469127236E-06
(PID.TID 0000.0001) %MON vort_r_max                   =   3.4952895971817E-06
(PID.TID 0000.0001) %MON vort_a_mean                  =   1.0615000000000E-04
(PID.TID 0000.0001) %MON vort_a_sd                    =   3.6453695274894E-06
(PID.TID 0000.0001) %MON vort_p_mean                  =   1.1210870169429E-04
(PID.TID 0000.0001) %MON vort_p_sd                    =   2.1071454817598E-05
(PID.TID 0000.0001) %MON surfExpan_theta_mean         =  -2.1108868312574E-19
(PID.TID 0000.0001) %MON surfExpan_salt_mean          =  -3.1662084180899E-19
(PID.TID 0000.0001) // =======================================================
(PID.TID 0000.0001) // End MONITOR dynamic field statistics
(PID.TID 0000.0001) // =======================================================
 cg2d: Sum(rhs),rhsMax =   4.77836682291249E-03  1.34967713641046E-02
 cg2d: Sum(rhs),rhsMax =   4.77954443919030E-03  1.34969100664140E-02
 cg2d: Sum(rhs),rhsMax =   4.78072168341816E-03  1.34970485872270E-02
 cg2d: Sum(rhs),rhsMax =   4.78189924513581E-03  1.34971869284777E-02
 cg2d: Sum(rhs),rhsMax =   4.78307646316905E-03  1.34973250855849E-02
 cg2d: Sum(rhs),rhsMax =   4.78425360674284E-03  1.34974630663842E-02
 cg2d: Sum(rhs),rhsMax =   4.78543075816550E-03  1.34976008614726E-02
 cg2d: Sum(rhs),rhsMax =   4.78660771345085E-03  1.34977384816357E-02
 cg2d: Sum(rhs),rhsMax =   4.78778461057885E-03  1.34978759168849E-02
 cg2d: Sum(rhs),rhsMax =   4.78896131451850E-03  1.34980131772444E-02
 cg2d: Sum(rhs),rhsMax =   4.79013763179248E-03  1.34981502543050E-02
 cg2d: Sum(rhs),rhsMax =   4.79131404670293E-03  1.34982871531809E-02
 cg2d: Sum(rhs),rhsMax =   4.79249026169068E-03  1.34984238717304E-02
 cg2d: Sum(rhs),rhsMax =   4.79366640154000E-03  1.34985604137621E-02
 cg2d: Sum(rhs),rhsMax =   4.79484226660256E-03  1.34986967746049E-02
 cg2d: Sum(rhs),rhsMax =   4.79601801980385E-03  1.34988329584955E-02
 cg2d: Sum(rhs),rhsMax =   4.79719342795605E-03  1.34989689613793E-02
 cg2d: Sum(rhs),rhsMax =   4.79836871328211E-03  1.34991047901054E-02
 cg2d: Sum(rhs),rhsMax =   4.79949058828180E-03  1.34992404465502E-02
 cg2d: Sum(rhs),rhsMax =   4.80061232015260E-03  1.34993759154081E-02
 cg2d: Sum(rhs),rhsMax =   4.80173409300347E-03  1.34995112108632E-02
 cg2d: Sum(rhs),rhsMax =   4.80285552719231E-03  1.34996463255864E-02
 cg2d: Sum(rhs),rhsMax =   4.80397683071921E-03  1.34997812671238E-02
 cg2d: Sum(rhs),rhsMax =   4.80509777924006E-03  1.34999160287494E-02
 cg2d: Sum(rhs),rhsMax =   4.80621853646697E-03  1.35000506167659E-02
 cg2d: Sum(rhs),rhsMax =   4.80733893064659E-03  1.35001850257429E-02
 cg2d: Sum(rhs),rhsMax =   4.80845881910430E-03  1.35003192606542E-02
 cg2d: Sum(rhs),rhsMax =   4.80957866675887E-03  1.35004533195696E-02
 cg2d: Sum(rhs),rhsMax =   4.81069824422587E-03  1.35005872040832E-02
 cg2d: Sum(rhs),rhsMax =   4.81181763377968E-03  1.35007209100406E-02
 cg2d: Sum(rhs),rhsMax =   4.81293637772516E-03  1.35008544413618E-02
 cg2d: Sum(rhs),rhsMax =   4.81405508851093E-03  1.35009877992309E-02
 cg2d: Sum(rhs),rhsMax =   4.81517338980161E-03  1.35011209818768E-02
 cg2d: Sum(rhs),rhsMax =   4.81629151310843E-03  1.35012539891357E-02
 cg2d: Sum(rhs),rhsMax =   4.81735571066909E-03  1.35013868189946E-02
 cg2d: Sum(rhs),rhsMax =   4.81841935535596E-03  1.35015194762525E-02
 cg2d: Sum(rhs),rhsMax =   4.81948295746288E-03  1.35016519647118E-02
 cg2d: Sum(rhs),rhsMax =   4.82054607385038E-03  1.35017842740024E-02
 cg2d: Sum(rhs),rhsMax =   4.82160885612869E-03  1.35019164150456E-02
 cg2d: Sum(rhs),rhsMax =   4.82223830494735E-03  1.35020483886690E-02
 cg2d: Sum(rhs),rhsMax =   4.82286750709300E-03  1.35021801792027E-02
 cg2d: Sum(rhs),rhsMax =   4.82349644691015E-03  1.35023118001099E-02
 cg2d: Sum(rhs),rhsMax =   4.82412493700929E-03  1.35024432465605E-02
 cg2d: Sum(rhs),rhsMax =   4.82475324649651E-03  1.35025745222103E-02
 cg2d: Sum(rhs),rhsMax =   4.82538076112216E-03  1.35027056235246E-02
 cg2d: Sum(rhs),rhsMax =   4.82600843559405E-03  1.35028365548397E-02
 cg2d: Sum(rhs),rhsMax =   4.82663552792790E-03  1.35029673149555E-02
 cg2d: Sum(rhs),rhsMax =   4.82726256679143E-03  1.35030979048244E-02
 cg2d: Sum(rhs),rhsMax =   4.82788921172818E-03  1.35032283216006E-02
 cg2d: Sum(rhs),rhsMax =   4.82851558925759E-03  1.35033585695077E-02
 cg2d: Sum(rhs),rhsMax =   4.82914147315012E-03  1.35034886448376E-02
 cg2d: Sum(rhs),rhsMax =   4.82976711834433E-03  1.35036185513654E-02
 cg2d: Sum(rhs),rhsMax =   4.83039234833740E-03  1.35037482894767E-02
 cg2d: Sum(rhs),rhsMax =   4.83101708392454E-03  1.35038778555020E-02
 cg2d: Sum(rhs),rhsMax =   4.83164164035234E-03  1.35040072489255E-02
 cg2d: Sum(rhs),rhsMax =   4.83226586403732E-03  1.35041364764317E-02
 cg2d: Sum(rhs),rhsMax =   4.83288984113683E-03  1.35042655342113E-02
 cg2d: Sum(rhs),rhsMax =   4.83351322940040E-03  1.35043944264123E-02
 cg2d: Sum(rhs),rhsMax =   4.83413654176727E-03  1.35045231460628E-02
 cg2d: Sum(rhs),rhsMax =   4.83475921923604E-03  1.35046517014860E-02
 cg2d: Sum(rhs),rhsMax =   4.83538172367563E-03  1.35047800839200E-02
 cg2d: Sum(rhs),rhsMax =   4.83600356869074E-03  1.35049083008615E-02
 cg2d: Sum(rhs),rhsMax =   4.83662537119679E-03  1.35050363483371E-02
 cg2d: Sum(rhs),rhsMax =   4.83724664323872E-03  1.35051642348955E-02
 cg2d: Sum(rhs),rhsMax =   4.83786770653054E-03  1.35052919467880E-02
 cg2d: Sum(rhs),rhsMax =   4.83848832171697E-03  1.35054194974470E-02
 cg2d: Sum(rhs),rhsMax =   4.83910858676099E-03  1.35055468759921E-02
 cg2d: Sum(rhs),rhsMax =   4.83972849776749E-03  1.35056740937253E-02
 cg2d: Sum(rhs),rhsMax =   4.84034799782570E-03  1.35058011398566E-02
 cg2d: Sum(rhs),rhsMax =   4.84096683674780E-03  1.35059280241758E-02
 cg2d: Sum(rhs),rhsMax =   4.84158550161246E-03  1.35060547374233E-02
 cg2d: Sum(rhs),rhsMax =   4.84220381037778E-03  1.35061812917836E-02
(PID.TID 0000.0001)      cg2d_init_res =   1.28994772751277E-03
(PID.TID 0000.0001)      cg2d_iters(min,last) =      -1     353
(PID.TID 0000.0001)      cg2d_last_res =   9.51637012565075E-08
(PID.TID 0000.0001) // =======================================================
(PID.TID 0000.0001) // Begin MONITOR dynamic field statistics
(PID.TID 0000.0001) // =======================================================
(PID.TID 0000.0001) %MON time_tsnumber                =                 19368
(PID.TID 0000.0001) %MON time_secondsf                =   2.3241600000000E+07
(PID.TID 0000.0001) %MON dynstat_eta_max              =   1.3673959802770E-01
(PID.TID 0000.0001) %MON dynstat_eta_min              =  -3.5344959265154E-01
(PID.TID 0000.0001) %MON dynstat_eta_mean             =  -3.1126570206850E-07
(PID.TID 0000.0001) %MON dynstat_eta_sd               =   1.2273861965630E-01
(PID.TID 0000.0001) %MON dynstat_eta_del2             =   7.4163854932163E-07
(PID.TID 0000.0001) %MON dynstat_uvel_max             =   1.3347493564028E-01
(PID.TID 0000.0001) %MON dynstat_uvel_min             =  -1.3268958588115E-01
(PID.TID 0000.0001) %MON dynstat_uvel_mean            =  -5.8951487158478E-08
(PID.TID 0000.0001) %MON dynstat_uvel_sd              =   5.1425250572913E-02
(PID.TID 0000.0001) %MON dynstat_uvel_del2            =   1.1136021802353E-06
(PID.TID 0000.0001) %MON dynstat_vvel_max             =   1.6262312917907E-01
(PID.TID 0000.0001) %MON dynstat_vvel_min             =  -1.2486965822850E-01
(PID.TID 0000.0001) %MON dynstat_vvel_mean            =  -3.8444130135884E-08
(PID.TID 0000.0001) %MON dynstat_vvel_sd              =   4.9032190176763E-02
(PID.TID 0000.0001) %MON dynstat_vvel_del2            =   1.2997125706985E-06
(PID.TID 0000.0001) %MON dynstat_wvel_max             =   5.9390687802807E-09
(PID.TID 0000.0001) %MON dynstat_wvel_min             =  -7.4681483046152E-09
(PID.TID 0000.0001) %MON dynstat_wvel_mean            =  -2.5225916063316E-21
(PID.TID 0000.0001) %MON dynstat_wvel_sd              =   2.1475641695423E-09
(PID.TID 0000.0001) %MON dynstat_wvel_del2            =   2.2799507634152E-14
(PID.TID 0000.0001) %MON dynstat_theta_max            =   2.0000000000000E+01
(PID.TID 0000.0001) %MON dynstat_theta_min            =   2.0000000000000E+01
(PID.TID 0000.0001) %MON dynstat_theta_mean           =   1.9999999999999E+01
(PID.TID 0000.0001) %MON dynstat_theta_sd             =   1.1972645097557E-12
(PID.TID 0000.0001) %MON dynstat_theta_del2           =   0.0000000000000E+00
(PID.TID 0000.0001) %MON dynstat_salt_max             =   3.0000000000000E+01
(PID.TID 0000.0001) %MON dynstat_salt_min             =   3.0000000000000E+01
(PID.TID 0000.0001) %MON dynstat_salt_mean            =   2.9999999999998E+01
(PID.TID 0000.0001) %MON dynstat_salt_sd              =   2.1529444893531E-12
(PID.TID 0000.0001) %MON dynstat_salt_del2            =   0.0000000000000E+00
(PID.TID 0000.0001) %MON trAdv_CFL_u_max              =   3.2033473453221E-02
(PID.TID 0000.0001) %MON trAdv_CFL_v_max              =   3.9028587891260E-02
(PID.TID 0000.0001) %MON trAdv_CFL_w_max              =   1.5048916909554E-09
(PID.TID 0000.0001) %MON advcfl_uvel_max              =   3.2033984553668E-02
(PID.TID 0000.0001) %MON advcfl_vvel_max              =   3.9029551002976E-02
(PID.TID 0000.0001) %MON advcfl_wvel_max              =   3.5847111862153E-09
(PID.TID 0000.0001) %MON advcfl_W_hf_max              =   0.0000000000000E+00
(PID.TID 0000.0001) %MON pe_b_mean                    =   1.5413321826088E-05
(PID.TID 0000.0001) %MON ke_max                       =   1.3228170439554E-02
(PID.TID 0000.0001) %MON ke_mean                      =   2.5129929478016E-03
(PID.TID 0000.0001) %MON ke_vol                       =   7.2529629296391E+15
(PID.TID 0000.0001) %MON vort_r_min                   =  -4.4300907452891E-06
(PID.TID 0000.0001) %MON vort_r_max                   =   3.5059793763588E-06
(PID.TID 0000.0001) %MON vort_a_mean                  =   1.0615000000000E-04
(PID.TID 0000.0001) %MON vort_a_sd                    =   3.6455515637790E-06
(PID.TID 0000.0001) %MON vort_p_mean                  =   1.1210870169429E-04
(PID.TID 0000.0001) %MON vort_p_sd                    =   2.1071524723530E-05
(PID.TID 0000.0001) %MON surfExpan_theta_mean         =  -5.0445819626625E-20
(PID.TID 0000.0001) %MON surfExpan_salt_mean          =  -7.5657523445043E-20
(PID.TID 0000.0001) // =======================================================
(PID.TID 0000.0001) // End MONITOR dynamic field statistics
(PID.TID 0000.0001) // =======================================================
 cg2d: Sum(rhs),rhsMax =   4.84282173303417E-03  1.35063076761134E-02
 cg2d: Sum(rhs),rhsMax =   4.84343912912916E-03  1.35064339006891E-02
 cg2d: Sum(rhs),rhsMax =   4.84405617087480E-03  1.35065599556998E-02
 cg2d: Sum(rhs),rhsMax =   4.84467287621291E-03  1.35066858519617E-02
 cg2d: Sum(rhs),rhsMax =   4.84528904140807E-03  1.35068115794560E-02
 cg2d: Sum(rhs),rhsMax =   4.84590488477643E-03  1.35069371471922E-02
 cg2d: Sum(rhs),rhsMax =   4.84652007667638E-03  1.35070625440744E-02
 cg2d: Sum(rhs),rhsMax =   4.84713498557356E-03  1.35071877845219E-02
 cg2d: Sum(rhs),rhsMax =   4.84774946437458E-03  1.35073128574261E-02
 cg2d: Sum(rhs),rhsMax =   4.84836359861132E-03  1.35074377710764E-02
 cg2d: Sum(rhs),rhsMax =   4.84897727702165E-03  1.35075625187643E-02
 cg2d: Sum(rhs),rhsMax =   4.84959042975805E-03  1.35076871077478E-02
 cg2d: Sum(rhs),rhsMax =   4.85020318604261E-03  1.35078115293732E-02
 cg2d: Sum(rhs),rhsMax =   4.85081545812422E-03  1.35079357943898E-02
 cg2d: Sum(rhs),rhsMax =   4.85142729512981E-03  1.35080598956834E-02
 cg2d: Sum(rhs),rhsMax =   4.85203874947513E-03  1.35081838386589E-02
 cg2d: Sum(rhs),rhsMax =   4.85264960528618E-03  1.35083076149281E-02
 cg2d: Sum(rhs),rhsMax =   4.85326002360785E-03  1.35084312332246E-02
 cg2d: Sum(rhs),rhsMax =   4.85387002388611E-03  1.35085546895419E-02
 cg2d: Sum(rhs),rhsMax =   4.85447955247917E-03  1.35086779899834E-02
 cg2d: Sum(rhs),rhsMax =   4.85508863627008E-03  1.35088011260587E-02
 cg2d: Sum(rhs),rhsMax =   4.85569727728425E-03  1.35089241071807E-02
 cg2d: Sum(rhs),rhsMax =   4.85630544232866E-03  1.35090469240476E-02
 cg2d: Sum(rhs),rhsMax =   4.85691303951089E-03  1.35091695863740E-02
 cg2d: Sum(rhs),rhsMax =   4.85752021051233E-03  1.35092920830699E-02
 cg2d: Sum(rhs),rhsMax =   4.85812689143746E-03  1.35094144258795E-02
 cg2d: Sum(rhs),rhsMax =   4.85873302937648E-03  1.35095366077106E-02
 cg2d: Sum(rhs),rhsMax =   4.85933877939638E-03  1.35096586344674E-02
 cg2d: Sum(rhs),rhsMax =   4.85994365475581E-03  1.35097804994727E-02
 cg2d: Sum(rhs),rhsMax =   4.86054834007173E-03  1.35099022119927E-02
 cg2d: Sum(rhs),rhsMax =   4.86115248981917E-03  1.35100237656106E-02
 cg2d: Sum(rhs),rhsMax =   4.86175626663500E-03  1.35101451617463E-02
 cg2d: Sum(rhs),rhsMax =   4.86235937975429E-03  1.35102663993179E-02
 cg2d: Sum(rhs),rhsMax =   4.86296185930194E-03  1.35103874775302E-02
 cg2d: Sum(rhs),rhsMax =   4.86356398308234E-03  1.35105084033294E-02
 cg2d: Sum(rhs),rhsMax =   4.86416559528492E-03  1.35106291754663E-02
 cg2d: Sum(rhs),rhsMax =   4.86476672900227E-03  1.35107497896203E-02
 cg2d: Sum(rhs),rhsMax =   4.86536716207874E-03  1.35108702518949E-02
 cg2d: Sum(rhs),rhsMax =   4.86596722922743E-03  1.35109905519313E-02
 cg2d: Sum(rhs),rhsMax =   4.86656670092143E-03  1.35111107005433E-02
 cg2d: Sum(rhs),rhsMax =   4.86716565352470E-03  1.35112306930184E-02
 cg2d: Sum(rhs),rhsMax =   4.86776394355052E-03  1.35113505352105E-02
 cg2d: Sum(rhs),rhsMax =   4.86836166193711E-03  1.35114702198414E-02
 cg2d: Sum(rhs),rhsMax =   4.86895897746305E-03  1.35115897508904E-02
 cg2d: Sum(rhs),rhsMax =   4.86955575893594E-03  1.35117091255584E-02
 cg2d: Sum(rhs),rhsMax =   4.87015195905107E-03  1.35118283529609E-02
 cg2d: Sum(rhs),rhsMax =   4.87074749084118E-03  1.35119474207913E-02
 cg2d: Sum(rhs),rhsMax =   4.87134258002389E-03  1.35120663409949E-02
 cg2d: Sum(rhs),rhsMax =   4.87193714407336E-03  1.35121851056091E-02
 cg2d: Sum(rhs),rhsMax =   4.87253105994357E-03  1.35123037221005E-02
 cg2d: Sum(rhs),rhsMax =   4.87312447924640E-03  1.35124221831264E-02
 cg2d: Sum(rhs),rhsMax =   4.87371720644517E-03  1.35125404966175E-02
 cg2d: Sum(rhs),rhsMax =   4.87430942885739E-03  1.35126586529847E-02
 cg2d: Sum(rhs),rhsMax =   4.87490067361634E-03  1.35127766611925E-02
 cg2d: Sum(rhs),rhsMax =   4.87549142741119E-03  1.35128945216815E-02
 cg2d: Sum(rhs),rhsMax =   4.87608184380176E-03  1.35130122306806E-02
 cg2d: Sum(rhs),rhsMax =   4.87667172627447E-03  1.35131297845125E-02
 cg2d: Sum(rhs),rhsMax =   4.87726099915154E-03  1.35132471920893E-02
 cg2d: Sum(rhs),rhsMax =   4.87784954205259E-03  1.35133644453625E-02
 cg2d: Sum(rhs),rhsMax =   4.87843749433133E-03  1.35134815533730E-02
 cg2d: Sum(rhs),rhsMax =   4.87902489410913E-03  1.35135985109681E-02
 cg2d: Sum(rhs),rhsMax =   4.87961159702380E-03  1.35137153230122E-02
 cg2d: Sum(rhs),rhsMax =   4.88019780046334E-03  1.35138319824519E-02
 cg2d: Sum(rhs),rhsMax =   4.88078307263731E-03  1.35139484962084E-02
 cg2d: Sum(rhs),rhsMax =   4.88136789778843E-03  1.35140648589869E-02
 cg2d: Sum(rhs),rhsMax =   4.88195209659777E-03  1.35141810790397E-02
 cg2d: Sum(rhs),rhsMax =   4.88253571680420E-03  1.35142971461513E-02
 cg2d: Sum(rhs),rhsMax =   4.88311875998691E-03  1.35144130702809E-02
 cg2d: Sum(rhs),rhsMax =   4.88370103199594E-03  1.35145288431984E-02
 cg2d: Sum(rhs),rhsMax =   4.88428276544684E-03  1.35146444733049E-02
 cg2d: Sum(rhs),rhsMax =   4.88486362894894E-03  1.35147599542071E-02
 cg2d: Sum(rhs),rhsMax =   4.88544398487533E-03  1.35148752919538E-02
(PID.TID 0000.0001)      cg2d_init_res =   1.28749109935316E-03
(PID.TID 0000.0001)      cg2d_iters(min,last) =      -1     353
(PID.TID 0000.0001)      cg2d_last_res =   9.71554071353471E-08
(PID.TID 0000.0001) // =======================================================
(PID.TID 0000.0001) // Begin MONITOR dynamic field statistics
(PID.TID 0000.0001) // =======================================================
(PID.TID 0000.0001) %MON time_tsnumber                =                 19440
(PID.TID 0000.0001) %MON time_secondsf                =   2.3328000000000E+07
(PID.TID 0000.0001) %MON dynstat_eta_max              =   1.3706547760682E-01
(PID.TID 0000.0001) %MON dynstat_eta_min              =  -3.5404141867820E-01
(PID.TID 0000.0001) %MON dynstat_eta_mean             =  -3.1424433722695E-07
(PID.TID 0000.0001) %MON dynstat_eta_sd               =   1.2287363273853E-01
(PID.TID 0000.0001) %MON dynstat_eta_del2             =   7.4242700356364E-07
(PID.TID 0000.0001) %MON dynstat_uvel_max             =   1.3362227174527E-01
(PID.TID 0000.0001) %MON dynstat_uvel_min             =  -1.3273277054167E-01
(PID.TID 0000.0001) %MON dynstat_uvel_mean            =  -5.9108684351716E-08
(PID.TID 0000.0001) %MON dynstat_uvel_sd              =   5.1475746523532E-02
(PID.TID 0000.0001) %MON dynstat_uvel_del2            =   1.1140278248941E-06
(PID.TID 0000.0001) %MON dynstat_vvel_max             =   1.6291384601171E-01
(PID.TID 0000.0001) %MON dynstat_vvel_min             =  -1.2493755573069E-01
(PID.TID 0000.0001) %MON dynstat_vvel_mean            =  -2.7937619164353E-08
(PID.TID 0000.0001) %MON dynstat_vvel_sd              =   4.9102021956147E-02
(PID.TID 0000.0001) %MON dynstat_vvel_del2            =   1.3022875098960E-06
(PID.TID 0000.0001) %MON dynstat_wvel_max             =   5.8092656452209E-09
(PID.TID 0000.0001) %MON dynstat_wvel_min             =  -7.3478441592306E-09
(PID.TID 0000.0001) %MON dynstat_wvel_mean            =   4.4674346010991E-22
(PID.TID 0000.0001) %MON dynstat_wvel_sd              =   2.1256349570364E-09
(PID.TID 0000.0001) %MON dynstat_wvel_del2            =   2.2927291518014E-14
(PID.TID 0000.0001) %MON dynstat_theta_max            =   2.0000000000000E+01
(PID.TID 0000.0001) %MON dynstat_theta_min            =   2.0000000000000E+01
(PID.TID 0000.0001) %MON dynstat_theta_mean           =   1.9999999999999E+01
(PID.TID 0000.0001) %MON dynstat_theta_sd             =   1.1972645097557E-12
(PID.TID 0000.0001) %MON dynstat_theta_del2           =   0.0000000000000E+00
(PID.TID 0000.0001) %MON dynstat_salt_max             =   3.0000000000000E+01
(PID.TID 0000.0001) %MON dynstat_salt_min             =   3.0000000000000E+01
(PID.TID 0000.0001) %MON dynstat_salt_mean            =   2.9999999999998E+01
(PID.TID 0000.0001) %MON dynstat_salt_sd              =   2.1529444893531E-12
(PID.TID 0000.0001) %MON dynstat_salt_del2            =   0.0000000000000E+00
(PID.TID 0000.0001) %MON trAdv_CFL_u_max              =   3.2068873005006E-02
(PID.TID 0000.0001) %MON trAdv_CFL_v_max              =   3.9098348180698E-02
(PID.TID 0000.0001) %MON trAdv_CFL_w_max              =   1.4701917150680E-09
(PID.TID 0000.0001) %MON advcfl_uvel_max              =   3.2069345218866E-02
(PID.TID 0000.0001) %MON advcfl_vvel_max              =   3.9099323042810E-02
(PID.TID 0000.0001) %MON advcfl_wvel_max              =   3.5269651964307E-09
(PID.TID 0000.0001) %MON advcfl_W_hf_max              =   0.0000000000000E+00
(PID.TID 0000.0001) %MON pe_b_mean                    =   1.5447249935239E-05
(PID.TID 0000.0001) %MON ke_max                       =   1.3274896890450E-02
(PID.TID 0000.0001) %MON ke_mean                      =   2.5189903144607E-03
(PID.TID 0000.0001) %MON ke_vol                       =   7.2529629296391E+15
(PID.TID 0000.0001) %MON vort_r_min                   =  -4.4331335394911E-06
(PID.TID 0000.0001) %MON vort_r_max                   =   3.5169284956673E-06
(PID.TID 0000.0001) %MON vort_a_mean                  =   1.0615000000000E-04
(PID.TID 0000.0001) %MON vort_a_sd                    =   3.6457313234631E-06
(PID.TID 0000.0001) %MON vort_p_mean                  =   1.1210870169429E-04
(PID.TID 0000.0001) %MON vort_p_sd                    =   2.1071599774372E-05
(PID.TID 0000.0001) %MON surfExpan_theta_mean         =   8.9036373327049E-21
(PID.TID 0000.0001) %MON surfExpan_salt_mean          =   1.3357062204623E-20
(PID.TID 0000.0001) // =======================================================
(PID.TID 0000.0001) // End MONITOR dynamic field statistics
(PID.TID 0000.0001) // =======================================================
 cg2d: Sum(rhs),rhsMax =   4.88602369883316E-03  1.35149904820279E-02
 cg2d: Sum(rhs),rhsMax =   4.88660268062737E-03  1.35151055289277E-02
 cg2d: Sum(rhs),rhsMax =   4.88718108816268E-03  1.35152204285597E-02
 cg2d: Sum(rhs),rhsMax =   4.88775855049760E-03  1.35153351841466E-02
 cg2d: Sum(rhs),rhsMax =   4.88833550164559E-03  1.35154497922640E-02
 cg2d: Sum(rhs),rhsMax =   4.88891179557346E-03  1.35155642612239E-02
 cg2d: Sum(rhs),rhsMax =   4.88948737569847E-03  1.35156785842012E-02
 cg2d: Sum(rhs),rhsMax =   4.89006233880558E-03  1.35157927637336E-02
 cg2d: Sum(rhs),rhsMax =   4.89063661646893E-03  1.35159067957007E-02
 cg2d: Sum(rhs),rhsMax =   4.89121013981825E-03  1.35160206886879E-02
 cg2d: Sum(rhs),rhsMax =   4.89178299064639E-03  1.35161344358340E-02
 cg2d: Sum(rhs),rhsMax =   4.89235507885061E-03  1.35162480430985E-02
 cg2d: Sum(rhs),rhsMax =   4.89292649858569E-03  1.35163615073035E-02
 cg2d: Sum(rhs),rhsMax =   4.89349709716119E-03  1.35164748316869E-02
 cg2d: Sum(rhs),rhsMax =   4.89406712424732E-03  1.35165880099805E-02
 cg2d: Sum(rhs),rhsMax =   4.89463629798070E-03  1.35167010488847E-02
 cg2d: Sum(rhs),rhsMax =   4.89520481145105E-03  1.35168139445404E-02
 cg2d: Sum(rhs),rhsMax =   4.89577254706124E-03  1.35169267032728E-02
 cg2d: Sum(rhs),rhsMax =   4.89633958731357E-03  1.35170393183213E-02
 cg2d: Sum(rhs),rhsMax =   4.89690584865496E-03  1.35171517944101E-02
 cg2d: Sum(rhs),rhsMax =   4.89747139887979E-03  1.35172641298797E-02
 cg2d: Sum(rhs),rhsMax =   4.89803617837200E-03  1.35173763287051E-02
 cg2d: Sum(rhs),rhsMax =   4.89860030359761E-03  1.35174883845777E-02
 cg2d: Sum(rhs),rhsMax =   4.89916354799900E-03  1.35176003042756E-02
 cg2d: Sum(rhs),rhsMax =   4.89972589947284E-03  1.35177120815272E-02
 cg2d: Sum(rhs),rhsMax =   4.90028765038130E-03  1.35178237220041E-02
 cg2d: Sum(rhs),rhsMax =   4.90084861124550E-03  1.35179352205088E-02
 cg2d: Sum(rhs),rhsMax =   4.90140890586705E-03  1.35180465865925E-02
 cg2d: Sum(rhs),rhsMax =   4.90196828535509E-03  1.35181578115727E-02
 cg2d: Sum(rhs),rhsMax =   4.90252702309136E-03  1.35182689036662E-02
 cg2d: Sum(rhs),rhsMax =   4.90308468155987E-03  1.35183798565305E-02
 cg2d: Sum(rhs),rhsMax =   4.90364177551859E-03  1.35184906730411E-02
 cg2d: Sum(rhs),rhsMax =   4.90419786215970E-03  1.35186013519174E-02
 cg2d: Sum(rhs),rhsMax =   4.90475335942714E-03  1.35187118950692E-02
 cg2d: Sum(rhs),rhsMax =   4.90530798224806E-03  1.35188223012936E-02
 cg2d: Sum(rhs),rhsMax =   4.90586187039602E-03  1.35189325732654E-02
 cg2d: Sum(rhs),rhsMax =   4.90641488748143E-03  1.35190427084879E-02
 cg2d: Sum(rhs),rhsMax =   4.90696716269303E-03  1.35191527105492E-02
 cg2d: Sum(rhs),rhsMax =   4.90751796593462E-03  1.35192625744018E-02
 cg2d: Sum(rhs),rhsMax =   4.90806836371092E-03  1.35193723096189E-02
 cg2d: Sum(rhs),rhsMax =   4.90861794745195E-03  1.35194819064617E-02
 cg2d: Sum(rhs),rhsMax =   4.90916690666461E-03  1.35195913719767E-02
 cg2d: Sum(rhs),rhsMax =   4.90971490308103E-03  1.35197007016706E-02
 cg2d: Sum(rhs),rhsMax =   4.91026213676248E-03  1.35198099010703E-02
 cg2d: Sum(rhs),rhsMax =   4.91080844115688E-03  1.35199189647658E-02
 cg2d: Sum(rhs),rhsMax =   4.91135387440786E-03  1.35200278991448E-02
 cg2d: Sum(rhs),rhsMax =   4.91189828337440E-03  1.35201366957060E-02
 cg2d: Sum(rhs),rhsMax =   4.91244192779514E-03  1.35202453644889E-02
 cg2d: Sum(rhs),rhsMax =   4.91298473743178E-03  1.35203539023300E-02
 cg2d: Sum(rhs),rhsMax =   4.91352670497060E-03  1.35204623083880E-02
 cg2d: Sum(rhs),rhsMax =   4.91406768485713E-03  1.35205705780075E-02
 cg2d: Sum(rhs),rhsMax =   4.91460786520062E-03  1.35206787204182E-02
 cg2d: Sum(rhs),rhsMax =   4.91514707556804E-03  1.35207867313527E-02
 cg2d: Sum(rhs),rhsMax =   4.91568546485821E-03  1.35208946166924E-02
 cg2d: Sum(rhs),rhsMax =   4.91622291258967E-03  1.35210023702096E-02
 cg2d: Sum(rhs),rhsMax =   4.91675939719711E-03  1.35211099935073E-02
 cg2d: Sum(rhs),rhsMax =   4.91729502812414E-03  1.35212174858313E-02
 cg2d: Sum(rhs),rhsMax =   4.91782974786747E-03  1.35213248520906E-02
 cg2d: Sum(rhs),rhsMax =   4.91836352104542E-03  1.35214320877937E-02
 cg2d: Sum(rhs),rhsMax =   4.91889639049983E-03  1.35215391970583E-02
 cg2d: Sum(rhs),rhsMax =   4.91942831733473E-03  1.35216461754219E-02
 cg2d: Sum(rhs),rhsMax =   4.91995917260804E-03  1.35217530295194E-02
 cg2d: Sum(rhs),rhsMax =   4.92048920766580E-03  1.35218597498179E-02
 cg2d: Sum(rhs),rhsMax =   4.92101825617488E-03  1.35219663457213E-02
 cg2d: Sum(rhs),rhsMax =   4.92154636372043E-03  1.35220728162785E-02
 cg2d: Sum(rhs),rhsMax =   4.92207342173487E-03  1.35221791636877E-02
 cg2d: Sum(rhs),rhsMax =   4.92259950740644E-03  1.35222853764872E-02
 cg2d: Sum(rhs),rhsMax =   4.92312470429368E-03  1.35223914695243E-02
 cg2d: Sum(rhs),rhsMax =   4.92364875088085E-03  1.35224974367206E-02
 cg2d: Sum(rhs),rhsMax =   4.92417195562525E-03  1.35226032782422E-02
 cg2d: Sum(rhs),rhsMax =   4.92469410605636E-03  1.35227089926316E-02
 cg2d: Sum(rhs),rhsMax =   4.92521512238233E-03  1.35228145851506E-02
(PID.TID 0000.0001)      cg2d_init_res =   1.28424430979962E-03
(PID.TID 0000.0001)      cg2d_iters(min,last) =      -1     353
(PID.TID 0000.0001)      cg2d_last_res =   9.51024671890857E-08
(PID.TID 0000.0001) // =======================================================
(PID.TID 0000.0001) // Begin MONITOR dynamic field statistics
(PID.TID 0000.0001) // =======================================================
(PID.TID 0000.0001) %MON time_tsnumber                =                 19512
(PID.TID 0000.0001) %MON time_secondsf                =   2.3414400000000E+07
(PID.TID 0000.0001) %MON dynstat_eta_max              =   1.3740462233789E-01
(PID.TID 0000.0001) %MON dynstat_eta_min              =  -3.5463049221135E-01
(PID.TID 0000.0001) %MON dynstat_eta_mean             =  -3.1698425768317E-07
(PID.TID 0000.0001) %MON dynstat_eta_sd               =   1.2300670613574E-01
(PID.TID 0000.0001) %MON dynstat_eta_del2             =   7.4320468609637E-07
(PID.TID 0000.0001) %MON dynstat_uvel_max             =   1.3375851486586E-01
(PID.TID 0000.0001) %MON dynstat_uvel_min             =  -1.3276973134674E-01
(PID.TID 0000.0001) %MON dynstat_uvel_mean            =  -5.6920048203831E-08
(PID.TID 0000.0001) %MON dynstat_uvel_sd              =   5.1522312891011E-02
(PID.TID 0000.0001) %MON dynstat_uvel_del2            =   1.1143485962833E-06
(PID.TID 0000.0001) %MON dynstat_vvel_max             =   1.6320806858256E-01
(PID.TID 0000.0001) %MON dynstat_vvel_min             =  -1.2501928900863E-01
(PID.TID 0000.0001) %MON dynstat_vvel_mean            =  -1.7668318474873E-08
(PID.TID 0000.0001) %MON dynstat_vvel_sd              =   4.9175219157054E-02
(PID.TID 0000.0001) %MON dynstat_vvel_del2            =   1.3047469180178E-06
(PID.TID 0000.0001) %MON dynstat_wvel_max             =   5.6055901478976E-09
(PID.TID 0000.0001) %MON dynstat_wvel_min             =  -7.2176368138753E-09
(PID.TID 0000.0001) %MON dynstat_wvel_mean            =   1.2709557915763E-21
(PID.TID 0000.0001) %MON dynstat_wvel_sd              =   2.1039796580475E-09
(PID.TID 0000.0001) %MON dynstat_wvel_del2            =   2.2830681391731E-14
(PID.TID 0000.0001) %MON dynstat_theta_max            =   2.0000000000000E+01
(PID.TID 0000.0001) %MON dynstat_theta_min            =   2.0000000000000E+01
(PID.TID 0000.0001) %MON dynstat_theta_mean           =   1.9999999999999E+01
(PID.TID 0000.0001) %MON dynstat_theta_sd             =   1.1972645097557E-12
(PID.TID 0000.0001) %MON dynstat_theta_del2           =   0.0000000000000E+00
(PID.TID 0000.0001) %MON dynstat_salt_max             =   3.0000000000000E+01
(PID.TID 0000.0001) %MON dynstat_salt_min             =   3.0000000000000E+01
(PID.TID 0000.0001) %MON dynstat_salt_mean            =   2.9999999999998E+01
(PID.TID 0000.0001) %MON dynstat_salt_sd              =   2.1529444893531E-12
(PID.TID 0000.0001) %MON dynstat_salt_del2            =   0.0000000000000E+00
(PID.TID 0000.0001) %MON trAdv_CFL_u_max              =   3.2101606202626E-02
(PID.TID 0000.0001) %MON trAdv_CFL_v_max              =   3.9168950108215E-02
(PID.TID 0000.0001) %MON trAdv_CFL_w_max              =   1.4168690271063E-09
(PID.TID 0000.0001) %MON advcfl_uvel_max              =   3.2102043567807E-02
(PID.TID 0000.0001) %MON advcfl_vvel_max              =   3.9169936459815E-02
(PID.TID 0000.0001) %MON advcfl_wvel_max              =   3.4644656706601E-09
(PID.TID 0000.0001) %MON advcfl_W_hf_max              =   0.0000000000000E+00
(PID.TID 0000.0001) %MON pe_b_mean                    =   1.5480727111885E-05
(PID.TID 0000.0001) %MON ke_max                       =   1.3322265296827E-02
(PID.TID 0000.0001) %MON ke_mean                      =   2.5249582612123E-03
(PID.TID 0000.0001) %MON ke_vol                       =   7.2529629296391E+15
(PID.TID 0000.0001) %MON vort_r_min                   =  -4.4359023336143E-06
(PID.TID 0000.0001) %MON vort_r_max                   =   3.5278185615557E-06
(PID.TID 0000.0001) %MON vort_a_mean                  =   1.0615000000000E-04
(PID.TID 0000.0001) %MON vort_a_sd                    =   3.6459077955545E-06
(PID.TID 0000.0001) %MON vort_p_mean                  =   1.1210870169429E-04
(PID.TID 0000.0001) %MON vort_p_sd                    =   2.1071679274380E-05
(PID.TID 0000.0001) %MON surfExpan_theta_mean         =   2.5419399841973E-20
(PID.TID 0000.0001) %MON surfExpan_salt_mean          =   3.8134075769493E-20
(PID.TID 0000.0001) // =======================================================
(PID.TID 0000.0001) // End MONITOR dynamic field statistics
(PID.TID 0000.0001) // =======================================================
 cg2d: Sum(rhs),rhsMax =   4.92573526475325E-03  1.35229200504400E-02
 cg2d: Sum(rhs),rhsMax =   4.92625438585670E-03  1.35230253942531E-02
 cg2d: Sum(rhs),rhsMax =   4.92677256153203E-03  1.35231306116021E-02
 cg2d: Sum(rhs),rhsMax =   4.92728966538383E-03  1.35232357075746E-02
 cg2d: Sum(rhs),rhsMax =   4.92780583063555E-03  1.35233406779390E-02
 cg2d: Sum(rhs),rhsMax =   4.92832077969063E-03  1.35234455247695E-02
 cg2d: Sum(rhs),rhsMax =   4.92883478740696E-03  1.35235502512071E-02
 cg2d: Sum(rhs),rhsMax =   4.92934775957162E-03  1.35236548581708E-02
 cg2d: Sum(rhs),rhsMax =   4.92985964820232E-03  1.35237593398929E-02
 cg2d: Sum(rhs),rhsMax =   4.93037052719611E-03  1.35238637022749E-02
 cg2d: Sum(rhs),rhsMax =   4.93088018120157E-03  1.35239679405891E-02
 cg2d: Sum(rhs),rhsMax =   4.93138887616405E-03  1.35240720595722E-02
 cg2d: Sum(rhs),rhsMax =   4.93189643680679E-03  1.35241760566616E-02
 cg2d: Sum(rhs),rhsMax =   4.93240299146887E-03  1.35242799370659E-02
 cg2d: Sum(rhs),rhsMax =   4.93290844488125E-03  1.35243836937936E-02
 cg2d: Sum(rhs),rhsMax =   4.93341280049465E-03  1.35244873296962E-02
 cg2d: Sum(rhs),rhsMax =   4.93391607397032E-03  1.35245908456420E-02
 cg2d: Sum(rhs),rhsMax =   4.93441819407060E-03  1.35246942438789E-02
 cg2d: Sum(rhs),rhsMax =   4.93491920286296E-03  1.35247975225088E-02
 cg2d: Sum(rhs),rhsMax =   4.93541913523249E-03  1.35249006844783E-02
 cg2d: Sum(rhs),rhsMax =   4.93591789506587E-03  1.35250037271783E-02
 cg2d: Sum(rhs),rhsMax =   4.93673779381357E-03  1.35251066491077E-02
 cg2d: Sum(rhs),rhsMax =   4.93755530799288E-03  1.35252094513710E-02
 cg2d: Sum(rhs),rhsMax =   4.93840862688857E-03  1.35253121476104E-02
 cg2d: Sum(rhs),rhsMax =   4.93925955461943E-03  1.35254147190364E-02
 cg2d: Sum(rhs),rhsMax =   4.94010797827050E-03  1.35255171777144E-02
 cg2d: Sum(rhs),rhsMax =   4.94095375211315E-03  1.35256195154457E-02
 cg2d: Sum(rhs),rhsMax =   4.94179704016342E-03  1.35257217420248E-02
 cg2d: Sum(rhs),rhsMax =   4.94263763427415E-03  1.35258238501781E-02
 cg2d: Sum(rhs),rhsMax =   4.94347590153607E-03  1.35259258473772E-02
 cg2d: Sum(rhs),rhsMax =   4.94431162098508E-03  1.35260277234654E-02
 cg2d: Sum(rhs),rhsMax =   4.94514486342261E-03  1.35261294879675E-02
 cg2d: Sum(rhs),rhsMax =   4.94597535533493E-03  1.35262311313119E-02
 cg2d: Sum(rhs),rhsMax =   4.94680335111116E-03  1.35263326679421E-02
 cg2d: Sum(rhs),rhsMax =   4.94762867701890E-03  1.35264340867669E-02
 cg2d: Sum(rhs),rhsMax =   4.94848759670899E-03  1.35265353889675E-02
 cg2d: Sum(rhs),rhsMax =   4.94934355911458E-03  1.35266365791106E-02
 cg2d: Sum(rhs),rhsMax =   4.95019681695940E-03  1.35267376613379E-02
 cg2d: Sum(rhs),rhsMax =   4.95104722313330E-03  1.35268386281201E-02
 cg2d: Sum(rhs),rhsMax =   4.95189489983145E-03  1.35269394863126E-02
 cg2d: Sum(rhs),rhsMax =   4.95273961757648E-03  1.35270402278572E-02
 cg2d: Sum(rhs),rhsMax =   4.95358143907876E-03  1.35271408606163E-02
 cg2d: Sum(rhs),rhsMax =   4.95442047195596E-03  1.35272413775966E-02
 cg2d: Sum(rhs),rhsMax =   4.95525660976800E-03  1.35273417908147E-02
 cg2d: Sum(rhs),rhsMax =   4.95608955504089E-03  1.35274420866012E-02
 cg2d: Sum(rhs),rhsMax =   4.95691978111474E-03  1.35275422764500E-02
 cg2d: Sum(rhs),rhsMax =   4.95774703490526E-03  1.35276423509571E-02
 cg2d: Sum(rhs),rhsMax =   4.95857130670938E-03  1.35277423227022E-02
 cg2d: Sum(rhs),rhsMax =   4.95939267647617E-03  1.35278421793437E-02
 cg2d: Sum(rhs),rhsMax =   4.96021102646396E-03  1.35279419302550E-02
 cg2d: Sum(rhs),rhsMax =   4.96102640225750E-03  1.35280415694497E-02
 cg2d: Sum(rhs),rhsMax =   4.96183864335732E-03  1.35281411024759E-02
 cg2d: Sum(rhs),rhsMax =   4.96264790082914E-03  1.35282405251137E-02
 cg2d: Sum(rhs),rhsMax =   4.96345392907692E-03  1.35283398411613E-02
 cg2d: Sum(rhs),rhsMax =   4.96425692045631E-03  1.35284390482743E-02
 cg2d: Sum(rhs),rhsMax =   4.96505684621237E-03  1.35285381519122E-02
 cg2d: Sum(rhs),rhsMax =   4.96585368170278E-03  1.35286371448511E-02
 cg2d: Sum(rhs),rhsMax =   4.96664716366336E-03  1.35287360316776E-02
 cg2d: Sum(rhs),rhsMax =   4.96747098938486E-03  1.35288348227573E-02
 cg2d: Sum(rhs),rhsMax =   4.96829144622965E-03  1.35289334931885E-02
 cg2d: Sum(rhs),rhsMax =   4.96910865566078E-03  1.35290320639664E-02
 cg2d: Sum(rhs),rhsMax =   4.96992243043272E-03  1.35291305230709E-02
 cg2d: Sum(rhs),rhsMax =   4.97073283681892E-03  1.35292288836412E-02
 cg2d: Sum(rhs),rhsMax =   4.97153975452623E-03  1.35293271339657E-02
 cg2d: Sum(rhs),rhsMax =   4.97234318641053E-03  1.35294252852905E-02
 cg2d: Sum(rhs),rhsMax =   4.97314316478885E-03  1.35295233294798E-02
 cg2d: Sum(rhs),rhsMax =   4.97393968281154E-03  1.35296212786106E-02
 cg2d: Sum(rhs),rhsMax =   4.97473280520150E-03  1.35297191114093E-02
 cg2d: Sum(rhs),rhsMax =   4.97552230444604E-03  1.35298168492554E-02
 cg2d: Sum(rhs),rhsMax =   4.97630826865777E-03  1.35299144762254E-02
 cg2d: Sum(rhs),rhsMax =   4.97709067212692E-03  1.35300120080115E-02
 cg2d: Sum(rhs),rhsMax =   4.97786951275293E-03  1.35301094324845E-02
(PID.TID 0000.0001)      cg2d_init_res =   1.27976332516162E-03
(PID.TID 0000.0001)      cg2d_iters(min,last) =      -1     343
(PID.TID 0000.0001)      cg2d_last_res =   9.70677419410733E-08
(PID.TID 0000.0001) // =======================================================
(PID.TID 0000.0001) // Begin MONITOR dynamic field statistics
(PID.TID 0000.0001) // =======================================================
(PID.TID 0000.0001) %MON time_tsnumber                =                 19584
(PID.TID 0000.0001) %MON time_secondsf                =   2.3500800000000E+07
(PID.TID 0000.0001) %MON dynstat_eta_max              =   1.3774957431040E-01
(PID.TID 0000.0001) %MON dynstat_eta_min              =  -3.5521491604147E-01
(PID.TID 0000.0001) %MON dynstat_eta_mean             =  -3.2056175890269E-07
(PID.TID 0000.0001) %MON dynstat_eta_sd               =   1.2313766771478E-01
(PID.TID 0000.0001) %MON dynstat_eta_del2             =   7.4396738900556E-07
(PID.TID 0000.0001) %MON dynstat_uvel_max             =   1.3388511472485E-01
(PID.TID 0000.0001) %MON dynstat_uvel_min             =  -1.3280624784315E-01
(PID.TID 0000.0001) %MON dynstat_uvel_mean            =  -5.2553795154161E-08
(PID.TID 0000.0001) %MON dynstat_uvel_sd              =   5.1565185889787E-02
(PID.TID 0000.0001) %MON dynstat_uvel_del2            =   1.1145814970028E-06
(PID.TID 0000.0001) %MON dynstat_vvel_max             =   1.6350744953880E-01
(PID.TID 0000.0001) %MON dynstat_vvel_min             =  -1.2511648733402E-01
(PID.TID 0000.0001) %MON dynstat_vvel_mean            =  -8.0233738311280E-09
(PID.TID 0000.0001) %MON dynstat_vvel_sd              =   4.9251359837393E-02
(PID.TID 0000.0001) %MON dynstat_vvel_del2            =   1.3070197990431E-06
(PID.TID 0000.0001) %MON dynstat_wvel_max             =   5.3281622938812E-09
(PID.TID 0000.0001) %MON dynstat_wvel_min             =  -7.0811945036985E-09
(PID.TID 0000.0001) %MON dynstat_wvel_mean            =  -3.5344325963338E-22
(PID.TID 0000.0001) %MON dynstat_wvel_sd              =   2.0834740015927E-09
(PID.TID 0000.0001) %MON dynstat_wvel_del2            =   2.3035605327563E-14
(PID.TID 0000.0001) %MON dynstat_theta_max            =   2.0000000000000E+01
(PID.TID 0000.0001) %MON dynstat_theta_min            =   2.0000000000000E+01
(PID.TID 0000.0001) %MON dynstat_theta_mean           =   1.9999999999999E+01
(PID.TID 0000.0001) %MON dynstat_theta_sd             =   1.1972645097557E-12
(PID.TID 0000.0001) %MON dynstat_theta_del2           =   0.0000000000000E+00
(PID.TID 0000.0001) %MON dynstat_salt_max             =   3.0000000000000E+01
(PID.TID 0000.0001) %MON dynstat_salt_min             =   3.0000000000000E+01
(PID.TID 0000.0001) %MON dynstat_salt_mean            =   2.9999999999998E+01
(PID.TID 0000.0001) %MON dynstat_salt_sd              =   2.1529444893531E-12
(PID.TID 0000.0001) %MON dynstat_salt_del2            =   0.0000000000000E+00
(PID.TID 0000.0001) %MON trAdv_CFL_u_max              =   3.2132019452496E-02
(PID.TID 0000.0001) %MON trAdv_CFL_v_max              =   3.9240783583390E-02
(PID.TID 0000.0001) %MON trAdv_CFL_w_max              =   1.3448263752893E-09
(PID.TID 0000.0001) %MON advcfl_uvel_max              =   3.2132427533963E-02
(PID.TID 0000.0001) %MON advcfl_vvel_max              =   3.9241787889312E-02
(PID.TID 0000.0001) %MON advcfl_wvel_max              =   3.3989733617753E-09
(PID.TID 0000.0001) %MON advcfl_W_hf_max              =   0.0000000000000E+00
(PID.TID 0000.0001) %MON pe_b_mean                    =   1.5513708398466E-05
(PID.TID 0000.0001) %MON ke_max                       =   1.3370256868079E-02
(PID.TID 0000.0001) %MON ke_mean                      =   2.5308884150785E-03
(PID.TID 0000.0001) %MON ke_vol                       =   7.2529629296391E+15
(PID.TID 0000.0001) %MON vort_r_min                   =  -4.4384287793059E-06
(PID.TID 0000.0001) %MON vort_r_max                   =   3.5383402930014E-06
(PID.TID 0000.0001) %MON vort_a_mean                  =   1.0615000000000E-04
(PID.TID 0000.0001) %MON vort_a_sd                    =   3.6460800723101E-06
(PID.TID 0000.0001) %MON vort_p_mean                  =   1.1210870169429E-04
(PID.TID 0000.0001) %MON vort_p_sd                    =   2.1071762361230E-05
(PID.TID 0000.0001) %MON surfExpan_theta_mean         =  -7.0625148784111E-21
(PID.TID 0000.0001) %MON surfExpan_salt_mean          =  -1.0596930754987E-20
(PID.TID 0000.0001) // =======================================================
(PID.TID 0000.0001) // End MONITOR dynamic field statistics
(PID.TID 0000.0001) // =======================================================
 cg2d: Sum(rhs),rhsMax =   4.97864468337999E-03  1.35302067587633E-02
 cg2d: Sum(rhs),rhsMax =   4.97941621208657E-03  1.35303039777138E-02
 cg2d: Sum(rhs),rhsMax =   4.98018415420903E-03  1.35304011050256E-02
 cg2d: Sum(rhs),rhsMax =   4.98094847862735E-03  1.35304981248167E-02
 cg2d: Sum(rhs),rhsMax =   4.98170909144203E-03  1.35305950485122E-02
 cg2d: Sum(rhs),rhsMax =   4.98249702750349E-03  1.35306918620943E-02
 cg2d: Sum(rhs),rhsMax =   4.98328085654631E-03  1.35307885802237E-02
 cg2d: Sum(rhs),rhsMax =   4.98406079305796E-03  1.35308851978939E-02
 cg2d: Sum(rhs),rhsMax =   4.98483692337015E-03  1.35309817182803E-02
 cg2d: Sum(rhs),rhsMax =   4.98560886328868E-03  1.35310781353843E-02
 cg2d: Sum(rhs),rhsMax =   4.98637699506462E-03  1.35311744622769E-02
 cg2d: Sum(rhs),rhsMax =   4.98714093878912E-03  1.35312706842872E-02
 cg2d: Sum(rhs),rhsMax =   4.98790088249469E-03  1.35313668143556E-02
 cg2d: Sum(rhs),rhsMax =   4.98865684862208E-03  1.35314628411208E-02
 cg2d: Sum(rhs),rhsMax =   4.98940866783545E-03  1.35315587744588E-02
 cg2d: Sum(rhs),rhsMax =   4.99015649602330E-03  1.35316546047328E-02
 cg2d: Sum(rhs),rhsMax =   4.99093056863021E-03  1.35317503420975E-02
 cg2d: Sum(rhs),rhsMax =   4.99170011908414E-03  1.35318459798220E-02
 cg2d: Sum(rhs),rhsMax =   4.99246553615517E-03  1.35319415255738E-02
 cg2d: Sum(rhs),rhsMax =   4.99322627797369E-03  1.35320369707938E-02
 cg2d: Sum(rhs),rhsMax =   4.99398280099030E-03  1.35321323250798E-02
 cg2d: Sum(rhs),rhsMax =   4.99473473820317E-03  1.35322275802898E-02
 cg2d: Sum(rhs),rhsMax =   4.99548231656375E-03  1.35323227437504E-02
 cg2d: Sum(rhs),rhsMax =   4.99622524485826E-03  1.35324178086398E-02
 cg2d: Sum(rhs),rhsMax =   4.99696378703554E-03  1.35325127840281E-02
 cg2d: Sum(rhs),rhsMax =   4.99769762068748E-03  1.35326076617330E-02
 cg2d: Sum(rhs),rhsMax =   4.99842698058571E-03  1.35327024477085E-02
 cg2d: Sum(rhs),rhsMax =   4.99915172523232E-03  1.35327971381283E-02
 cg2d: Sum(rhs),rhsMax =   4.99990166584645E-03  1.35328917361081E-02
 cg2d: Sum(rhs),rhsMax =   5.00064661112393E-03  1.35329862408667E-02
 cg2d: Sum(rhs),rhsMax =   5.00138683325651E-03  1.35330806543364E-02
 cg2d: Sum(rhs),rhsMax =   5.00211789376401E-03  1.35331860169181E-02
 cg2d: Sum(rhs),rhsMax =   5.00284210302693E-03  1.35332966765590E-02
 cg2d: Sum(rhs),rhsMax =   5.00356119418810E-03  1.35334072461184E-02
 cg2d: Sum(rhs),rhsMax =   5.00427532637227E-03  1.35335177271282E-02
 cg2d: Sum(rhs),rhsMax =   5.00498438818179E-03  1.35336281176022E-02
 cg2d: Sum(rhs),rhsMax =   5.00568840597673E-03  1.35337384184255E-02
 cg2d: Sum(rhs),rhsMax =   5.00638734804906E-03  1.35338486297630E-02
 cg2d: Sum(rhs),rhsMax =   5.00708122350764E-03  1.35339587539943E-02
 cg2d: Sum(rhs),rhsMax =   5.00776993777919E-03  1.35340687889946E-02
 cg2d: Sum(rhs),rhsMax =   5.00845347295822E-03  1.35341787360691E-02
 cg2d: Sum(rhs),rhsMax =   5.00916015639129E-03  1.35342885951319E-02
 cg2d: Sum(rhs),rhsMax =   5.00986133269684E-03  1.35343983660058E-02
 cg2d: Sum(rhs),rhsMax =   5.01055715046478E-03  1.35345080496033E-02
 cg2d: Sum(rhs),rhsMax =   5.01124727482222E-03  1.35346176477619E-02
 cg2d: Sum(rhs),rhsMax =   5.01193198161566E-03  1.35347271589674E-02
 cg2d: Sum(rhs),rhsMax =   5.01261103490962E-03  1.35348365839768E-02
 cg2d: Sum(rhs),rhsMax =   5.01328453512021E-03  1.35349459223230E-02
 cg2d: Sum(rhs),rhsMax =   5.01395244200231E-03  1.35350551763288E-02
 cg2d: Sum(rhs),rhsMax =   5.01461455254612E-03  1.35351643455276E-02
 cg2d: Sum(rhs),rhsMax =   5.01527107477050E-03  1.35352734276118E-02
 cg2d: Sum(rhs),rhsMax =   5.01594925166728E-03  1.35353824293869E-02
 cg2d: Sum(rhs),rhsMax =   5.01662137883902E-03  1.35354913430551E-02
 cg2d: Sum(rhs),rhsMax =   5.01728752766534E-03  1.35356001723556E-02
 cg2d: Sum(rhs),rhsMax =   5.01794749770883E-03  1.35357089184873E-02
 cg2d: Sum(rhs),rhsMax =   5.01860148439861E-03  1.35358175815977E-02
 cg2d: Sum(rhs),rhsMax =   5.01924926279529E-03  1.35359261613050E-02
 cg2d: Sum(rhs),rhsMax =   5.01989098313564E-03  1.35360346585718E-02
 cg2d: Sum(rhs),rhsMax =   5.02052651734958E-03  1.35361430729403E-02
 cg2d: Sum(rhs),rhsMax =   5.02115584853005E-03  1.35362514052477E-02
 cg2d: Sum(rhs),rhsMax =   5.02177897203302E-03  1.35363596550242E-02
 cg2d: Sum(rhs),rhsMax =   5.02242243745755E-03  1.35364678166060E-02
 cg2d: Sum(rhs),rhsMax =   5.02305930445003E-03  1.35365759036414E-02
 cg2d: Sum(rhs),rhsMax =   5.02368971365464E-03  1.35366839103551E-02
 cg2d: Sum(rhs),rhsMax =   5.02431332586080E-03  1.35367918359414E-02
 cg2d: Sum(rhs),rhsMax =   5.02493046683585E-03  1.35368996815830E-02
 cg2d: Sum(rhs),rhsMax =   5.02554078329543E-03  1.35370074467221E-02
 cg2d: Sum(rhs),rhsMax =   5.02614453980775E-03  1.35371151328235E-02
 cg2d: Sum(rhs),rhsMax =   5.02674149309678E-03  1.35372227389991E-02
 cg2d: Sum(rhs),rhsMax =   5.02733178235710E-03  1.35373302663016E-02
 cg2d: Sum(rhs),rhsMax =   5.02791528506732E-03  1.35374377149756E-02
 cg2d: Sum(rhs),rhsMax =   5.02849197350626E-03  1.35375450846535E-02
(PID.TID 0000.0001)      cg2d_init_res =   1.27378861291703E-03
(PID.TID 0000.0001)      cg2d_iters(min,last) =      -1     337
(PID.TID 0000.0001)      cg2d_last_res =   9.46772440446097E-08
(PID.TID 0000.0001) // =======================================================
(PID.TID 0000.0001) // Begin MONITOR dynamic field statistics
(PID.TID 0000.0001) // =======================================================
(PID.TID 0000.0001) %MON time_tsnumber                =                 19656
(PID.TID 0000.0001) %MON time_secondsf                =   2.3587200000000E+07
(PID.TID 0000.0001) %MON dynstat_eta_max              =   1.3809278513816E-01
(PID.TID 0000.0001) %MON dynstat_eta_min              =  -3.5579298695482E-01
(PID.TID 0000.0001) %MON dynstat_eta_mean             =  -3.2398618006783E-07
(PID.TID 0000.0001) %MON dynstat_eta_sd               =   1.2326640674419E-01
(PID.TID 0000.0001) %MON dynstat_eta_del2             =   7.4471129409192E-07
(PID.TID 0000.0001) %MON dynstat_uvel_max             =   1.3400393850991E-01
(PID.TID 0000.0001) %MON dynstat_uvel_min             =  -1.3283841182215E-01
(PID.TID 0000.0001) %MON dynstat_uvel_mean            =  -4.6265716532501E-08
(PID.TID 0000.0001) %MON dynstat_uvel_sd              =   5.1604741499693E-02
(PID.TID 0000.0001) %MON dynstat_uvel_del2            =   1.1147452665343E-06
(PID.TID 0000.0001) %MON dynstat_vvel_max             =   1.6381005267597E-01
(PID.TID 0000.0001) %MON dynstat_vvel_min             =  -1.2523011957783E-01
(PID.TID 0000.0001) %MON dynstat_vvel_mean            =   6.4742163438645E-10
(PID.TID 0000.0001) %MON dynstat_vvel_sd              =   4.9329890524878E-02
(PID.TID 0000.0001) %MON dynstat_vvel_del2            =   1.3090435423131E-06
(PID.TID 0000.0001) %MON dynstat_wvel_max             =   4.9903220776469E-09
(PID.TID 0000.0001) %MON dynstat_wvel_min             =  -6.9451983261388E-09
(PID.TID 0000.0001) %MON dynstat_wvel_mean            =   6.0656618023160E-21
(PID.TID 0000.0001) %MON dynstat_wvel_sd              =   2.0649088158601E-09
(PID.TID 0000.0001) %MON dynstat_wvel_del2            =   2.2583383273303E-14
(PID.TID 0000.0001) %MON dynstat_theta_max            =   2.0000000000000E+01
(PID.TID 0000.0001) %MON dynstat_theta_min            =   2.0000000000000E+01
(PID.TID 0000.0001) %MON dynstat_theta_mean           =   1.9999999999999E+01
(PID.TID 0000.0001) %MON dynstat_theta_sd             =   1.1972645097557E-12
(PID.TID 0000.0001) %MON dynstat_theta_del2           =   0.0000000000000E+00
(PID.TID 0000.0001) %MON dynstat_salt_max             =   3.0000000000000E+01
(PID.TID 0000.0001) %MON dynstat_salt_min             =   3.0000000000000E+01
(PID.TID 0000.0001) %MON dynstat_salt_mean            =   2.9999999999998E+01
(PID.TID 0000.0001) %MON dynstat_salt_sd              =   2.1529444893531E-12
(PID.TID 0000.0001) %MON dynstat_salt_del2            =   0.0000000000000E+00
(PID.TID 0000.0001) %MON trAdv_CFL_u_max              =   3.2160559630647E-02
(PID.TID 0000.0001) %MON trAdv_CFL_v_max              =   3.9313400038179E-02
(PID.TID 0000.0001) %MON trAdv_CFL_w_max              =   1.2582786903530E-09
(PID.TID 0000.0001) %MON advcfl_uvel_max              =   3.2160945242378E-02
(PID.TID 0000.0001) %MON advcfl_vvel_max              =   3.9314412642233E-02
(PID.TID 0000.0001) %MON advcfl_wvel_max              =   3.3336951965466E-09
(PID.TID 0000.0001) %MON advcfl_W_hf_max              =   0.0000000000000E+00
(PID.TID 0000.0001) %MON pe_b_mean                    =   1.5546164166620E-05
(PID.TID 0000.0001) %MON ke_max                       =   1.3418815552820E-02
(PID.TID 0000.0001) %MON ke_mean                      =   2.5367731074439E-03
(PID.TID 0000.0001) %MON ke_vol                       =   7.2529629296391E+15
(PID.TID 0000.0001) %MON vort_r_min                   =  -4.4407478162439E-06
(PID.TID 0000.0001) %MON vort_r_max                   =   3.5482048083928E-06
(PID.TID 0000.0001) %MON vort_a_mean                  =   1.0615000000000E-04
(PID.TID 0000.0001) %MON vort_a_sd                    =   3.6462473768025E-06
(PID.TID 0000.0001) %MON vort_p_mean                  =   1.1210870169429E-04
(PID.TID 0000.0001) %MON vort_p_sd                    =   2.1071848044590E-05
(PID.TID 0000.0001) %MON surfExpan_theta_mean         =   1.2130471625897E-19
(PID.TID 0000.0001) %MON surfExpan_salt_mean          =   1.8195849274992E-19
(PID.TID 0000.0001) // =======================================================
(PID.TID 0000.0001) // End MONITOR dynamic field statistics
(PID.TID 0000.0001) // =======================================================
 cg2d: Sum(rhs),rhsMax =   5.02906189313381E-03  1.35376523750623E-02
 cg2d: Sum(rhs),rhsMax =   5.02964958372150E-03  1.35377595974656E-02
 cg2d: Sum(rhs),rhsMax =   5.03023009019335E-03  1.35378667322515E-02
 cg2d: Sum(rhs),rhsMax =   5.03080350738553E-03  1.35379737924592E-02
 cg2d: Sum(rhs),rhsMax =   5.03136970926214E-03  1.35380807730902E-02
 cg2d: Sum(rhs),rhsMax =   5.03192872949801E-03  1.35381876797064E-02
 cg2d: Sum(rhs),rhsMax =   5.03248038848987E-03  1.35382945074842E-02
 cg2d: Sum(rhs),rhsMax =   5.03302490439330E-03  1.35384012616506E-02
 cg2d: Sum(rhs),rhsMax =   5.03356201572914E-03  1.35385079379434E-02
 cg2d: Sum(rhs),rhsMax =   5.03409194077796E-03  1.35386145409696E-02
 cg2d: Sum(rhs),rhsMax =   5.03461446726592E-03  1.35387210696356E-02
 cg2d: Sum(rhs),rhsMax =   5.03515250299529E-03  1.35388275133672E-02
 cg2d: Sum(rhs),rhsMax =   5.03568283269308E-03  1.35389338911955E-02
 cg2d: Sum(rhs),rhsMax =   5.03620564990908E-03  1.35390401957215E-02
 cg2d: Sum(rhs),rhsMax =   5.03672066126169E-03  1.35391464260900E-02
 cg2d: Sum(rhs),rhsMax =   5.03722817155298E-03  1.35392525816318E-02
 cg2d: Sum(rhs),rhsMax =   5.03772785378063E-03  1.35393586651800E-02
 cg2d: Sum(rhs),rhsMax =   5.03821990948567E-03  1.35394646752811E-02
 cg2d: Sum(rhs),rhsMax =   5.03872649260092E-03  1.35395706195734E-02
 cg2d: Sum(rhs),rhsMax =   5.03922493600491E-03  1.35396764850201E-02
 cg2d: Sum(rhs),rhsMax =   5.03971548453235E-03  1.35397822779107E-02
 cg2d: Sum(rhs),rhsMax =   5.04019785380716E-03  1.35398879989910E-02
 cg2d: Sum(rhs),rhsMax =   5.04067225026937E-03  1.35399936486203E-02
 cg2d: Sum(rhs),rhsMax =   5.04113841953691E-03  1.35400992266085E-02
 cg2d: Sum(rhs),rhsMax =   5.04159661960565E-03  1.35402047357313E-02
 cg2d: Sum(rhs),rhsMax =   5.04204671401451E-03  1.35403101730920E-02
 cg2d: Sum(rhs),rhsMax =   5.04251011697406E-03  1.35404155380944E-02
 cg2d: Sum(rhs),rhsMax =   5.04296516359819E-03  1.35405208327119E-02
 cg2d: Sum(rhs),rhsMax =   5.04341193692254E-03  1.35406260632919E-02
 cg2d: Sum(rhs),rhsMax =   5.04385020212923E-03  1.35407312208345E-02
 cg2d: Sum(rhs),rhsMax =   5.04428019826005E-03  1.35408363126405E-02
 cg2d: Sum(rhs),rhsMax =   5.04470163079095E-03  1.35409413333013E-02
 cg2d: Sum(rhs),rhsMax =   5.04511488647349E-03  1.35410462851867E-02
 cg2d: Sum(rhs),rhsMax =   5.04553996369616E-03  1.35411511742572E-02
 cg2d: Sum(rhs),rhsMax =   5.04595640148852E-03  1.35412559906680E-02
 cg2d: Sum(rhs),rhsMax =   5.04636429914086E-03  1.35413607404369E-02
 cg2d: Sum(rhs),rhsMax =   5.04676356710309E-03  1.35414654211676E-02
 cg2d: Sum(rhs),rhsMax =   5.04717471319541E-03  1.35415700383398E-02
 cg2d: Sum(rhs),rhsMax =   5.04757696233722E-03  1.35416745859229E-02
 cg2d: Sum(rhs),rhsMax =   5.04797043882035E-03  1.35417790700085E-02
 cg2d: Sum(rhs),rhsMax =   5.04835498676184E-03  1.35418834859423E-02
 cg2d: Sum(rhs),rhsMax =   5.04873089931290E-03  1.35419878391426E-02
 cg2d: Sum(rhs),rhsMax =   5.04909806761587E-03  1.35420921236515E-02
 cg2d: Sum(rhs),rhsMax =   5.04947635663326E-03  1.35421963435114E-02
 cg2d: Sum(rhs),rhsMax =   5.04984567862047E-03  1.35423004993153E-02
 cg2d: Sum(rhs),rhsMax =   5.05020615072383E-03  1.35424045919936E-02
 cg2d: Sum(rhs),rhsMax =   5.05055768382385E-03  1.35425086188740E-02
 cg2d: Sum(rhs),rhsMax =   5.05090049168970E-03  1.35426125840902E-02
 cg2d: Sum(rhs),rhsMax =   5.05123439929315E-03  1.35427164843654E-02
 cg2d: Sum(rhs),rhsMax =   5.05155975796856E-03  1.35428203243227E-02
 cg2d: Sum(rhs),rhsMax =   5.05187654111207E-03  1.35429240991180E-02
 cg2d: Sum(rhs),rhsMax =   5.05220287320378E-03  1.35430278118752E-02
 cg2d: Sum(rhs),rhsMax =   5.05252042716041E-03  1.35431314637370E-02
 cg2d: Sum(rhs),rhsMax =   5.05282932987072E-03  1.35432350504339E-02
 cg2d: Sum(rhs),rhsMax =   5.05312951004412E-03  1.35433385781966E-02
 cg2d: Sum(rhs),rhsMax =   5.05342125643545E-03  1.35434420416532E-02
 cg2d: Sum(rhs),rhsMax =   5.05372228107840E-03  1.35435454384405E-02
 cg2d: Sum(rhs),rhsMax =   5.05401465957755E-03  1.35436487803135E-02
 cg2d: Sum(rhs),rhsMax =   5.05429853041062E-03  1.35437520622524E-02
 cg2d: Sum(rhs),rhsMax =   5.05457390660279E-03  1.35438552831220E-02
 cg2d: Sum(rhs),rhsMax =   5.05484098287508E-03  1.35439584466531E-02
 cg2d: Sum(rhs),rhsMax =   5.05509973907511E-03  1.35440615500860E-02
 cg2d: Sum(rhs),rhsMax =   5.05535043419924E-03  1.35441645933490E-02
 cg2d: Sum(rhs),rhsMax =   5.05559311992077E-03  1.35442675779329E-02
 cg2d: Sum(rhs),rhsMax =   5.05584461611930E-03  1.35443705123375E-02
 cg2d: Sum(rhs),rhsMax =   5.05608807159295E-03  1.35444733776629E-02
 cg2d: Sum(rhs),rhsMax =   5.05632368515662E-03  1.35445761879600E-02
 cg2d: Sum(rhs),rhsMax =   5.05655144634580E-03  1.35446789375414E-02
 cg2d: Sum(rhs),rhsMax =   5.05677159328451E-03  1.35447816330817E-02
 cg2d: Sum(rhs),rhsMax =   5.05698421688952E-03  1.35448842680214E-02
 cg2d: Sum(rhs),rhsMax =   5.05718950005067E-03  1.35449868496392E-02
 cg2d: Sum(rhs),rhsMax =   5.05738755893729E-03  1.35450893708631E-02
(PID.TID 0000.0001)      cg2d_init_res =   1.26640253087535E-03
(PID.TID 0000.0001)      cg2d_iters(min,last) =      -1     327
(PID.TID 0000.0001)      cg2d_last_res =   9.53632871180797E-08
(PID.TID 0000.0001) // =======================================================
(PID.TID 0000.0001) // Begin MONITOR dynamic field statistics
(PID.TID 0000.0001) // =======================================================
(PID.TID 0000.0001) %MON time_tsnumber                =                 19728
(PID.TID 0000.0001) %MON time_secondsf                =   2.3673600000000E+07
(PID.TID 0000.0001) %MON dynstat_eta_max              =   1.3842690077256E-01
(PID.TID 0000.0001) %MON dynstat_eta_min              =  -3.5636325947633E-01
(PID.TID 0000.0001) %MON dynstat_eta_mean             =  -3.2600476311039E-07
(PID.TID 0000.0001) %MON dynstat_eta_sd               =   1.2339287762333E-01
(PID.TID 0000.0001) %MON dynstat_eta_del2             =   7.4543309256152E-07
(PID.TID 0000.0001) %MON dynstat_uvel_max             =   1.3411717829353E-01
(PID.TID 0000.0001) %MON dynstat_uvel_min             =  -1.3286542650034E-01
(PID.TID 0000.0001) %MON dynstat_uvel_mean            =  -3.8381981674358E-08
(PID.TID 0000.0001) %MON dynstat_uvel_sd              =   5.1641476006927E-02
(PID.TID 0000.0001) %MON dynstat_uvel_del2            =   1.1148594343842E-06
(PID.TID 0000.0001) %MON dynstat_vvel_max             =   1.6411481833543E-01
(PID.TID 0000.0001) %MON dynstat_vvel_min             =  -1.2536046598022E-01
(PID.TID 0000.0001) %MON dynstat_vvel_mean            =   8.0464621599044E-09
(PID.TID 0000.0001) %MON dynstat_vvel_sd              =   4.9410153314477E-02
(PID.TID 0000.0001) %MON dynstat_vvel_del2            =   1.3107661331192E-06
(PID.TID 0000.0001) %MON dynstat_wvel_max             =   4.6002181619406E-09
(PID.TID 0000.0001) %MON dynstat_wvel_min             =  -6.8052341917064E-09
(PID.TID 0000.0001) %MON dynstat_wvel_mean            =   2.9622888758703E-21
(PID.TID 0000.0001) %MON dynstat_wvel_sd              =   2.0488488458528E-09
(PID.TID 0000.0001) %MON dynstat_wvel_del2            =   2.2841759079871E-14
(PID.TID 0000.0001) %MON dynstat_theta_max            =   2.0000000000000E+01
(PID.TID 0000.0001) %MON dynstat_theta_min            =   2.0000000000000E+01
(PID.TID 0000.0001) %MON dynstat_theta_mean           =   1.9999999999999E+01
(PID.TID 0000.0001) %MON dynstat_theta_sd             =   1.1972645097557E-12
(PID.TID 0000.0001) %MON dynstat_theta_del2           =   0.0000000000000E+00
(PID.TID 0000.0001) %MON dynstat_salt_max             =   3.0000000000000E+01
(PID.TID 0000.0001) %MON dynstat_salt_min             =   3.0000000000000E+01
(PID.TID 0000.0001) %MON dynstat_salt_mean            =   2.9999999999998E+01
(PID.TID 0000.0001) %MON dynstat_salt_sd              =   2.1529444893531E-12
(PID.TID 0000.0001) %MON dynstat_salt_del2            =   0.0000000000000E+00
(PID.TID 0000.0001) %MON trAdv_CFL_u_max              =   3.2187751921281E-02
(PID.TID 0000.0001) %MON trAdv_CFL_v_max              =   3.9386537729402E-02
(PID.TID 0000.0001) %MON trAdv_CFL_w_max              =   1.1576494625582E-09
(PID.TID 0000.0001) %MON advcfl_uvel_max              =   3.2188122790447E-02
(PID.TID 0000.0001) %MON advcfl_vvel_max              =   3.9387556400504E-02
(PID.TID 0000.0001) %MON advcfl_wvel_max              =   3.2665124120191E-09
(PID.TID 0000.0001) %MON advcfl_W_hf_max              =   0.0000000000000E+00
(PID.TID 0000.0001) %MON pe_b_mean                    =   1.5578081145886E-05
(PID.TID 0000.0001) %MON ke_max                       =   1.3467852247133E-02
(PID.TID 0000.0001) %MON ke_mean                      =   2.5426056593356E-03
(PID.TID 0000.0001) %MON ke_vol                       =   7.2529629296391E+15
(PID.TID 0000.0001) %MON vort_r_min                   =  -4.4428962708318E-06
(PID.TID 0000.0001) %MON vort_r_max                   =   3.5571538324306E-06
(PID.TID 0000.0001) %MON vort_a_mean                  =   1.0615000000000E-04
(PID.TID 0000.0001) %MON vort_a_sd                    =   3.6464090849504E-06
(PID.TID 0000.0001) %MON vort_p_mean                  =   1.1210870169429E-04
(PID.TID 0000.0001) %MON vort_p_sd                    =   2.1071935249451E-05
(PID.TID 0000.0001) %MON surfExpan_theta_mean         =   5.9250669455495E-20
(PID.TID 0000.0001) %MON surfExpan_salt_mean          =   8.8874069200051E-20
(PID.TID 0000.0001) // =======================================================
(PID.TID 0000.0001) // End MONITOR dynamic field statistics
(PID.TID 0000.0001) // =======================================================
 cg2d: Sum(rhs),rhsMax =   5.05757856567035E-03  1.35451918401249E-02
 cg2d: Sum(rhs),rhsMax =   5.05776266114194E-03  1.35452942492155E-02
 cg2d: Sum(rhs),rhsMax =   5.05795494718773E-03  1.35453965998785E-02
 cg2d: Sum(rhs),rhsMax =   5.05814033554819E-03  1.35454988966249E-02
 cg2d: Sum(rhs),rhsMax =   5.05831908746225E-03  1.35456011439658E-02
 cg2d: Sum(rhs),rhsMax =   5.05849138478697E-03  1.35457033325045E-02
 cg2d: Sum(rhs),rhsMax =   5.05865728005423E-03  1.35458054700107E-02
 cg2d: Sum(rhs),rhsMax =   5.05883214566674E-03  1.35459075561704E-02
 cg2d: Sum(rhs),rhsMax =   5.05900082753853E-03  1.35460095847954E-02
 cg2d: Sum(rhs),rhsMax =   5.05916357420189E-03  1.35461115562556E-02
 cg2d: Sum(rhs),rhsMax =   5.05932044343456E-03  1.35462134756705E-02
 cg2d: Sum(rhs),rhsMax =   5.05947174508000E-03  1.35463153415462E-02
 cg2d: Sum(rhs),rhsMax =   5.05961755576548E-03  1.35464171575866E-02
 cg2d: Sum(rhs),rhsMax =   5.05975815895921E-03  1.35465189174258E-02
 cg2d: Sum(rhs),rhsMax =   5.05989377567587E-03  1.35466206292986E-02
 cg2d: Sum(rhs),rhsMax =   5.06002451444971E-03  1.35467222858808E-02
 cg2d: Sum(rhs),rhsMax =   5.06015067095129E-03  1.35468238937046E-02
 cg2d: Sum(rhs),rhsMax =   5.06028702979256E-03  1.35469254439907E-02
 cg2d: Sum(rhs),rhsMax =   5.06041898281065E-03  1.35470269495736E-02
 cg2d: Sum(rhs),rhsMax =   5.06054682886218E-03  1.35471284003749E-02
 cg2d: Sum(rhs),rhsMax =   5.06067062064194E-03  1.35472298013679E-02
 cg2d: Sum(rhs),rhsMax =   5.06079080759928E-03  1.35473311535875E-02
 cg2d: Sum(rhs),rhsMax =   5.06090747740663E-03  1.35474324552801E-02
 cg2d: Sum(rhs),rhsMax =   5.06102087091551E-03  1.35475337084408E-02
 cg2d: Sum(rhs),rhsMax =   5.06113118929672E-03  1.35476349112422E-02
 cg2d: Sum(rhs),rhsMax =   5.06123867565590E-03  1.35477360653355E-02
 cg2d: Sum(rhs),rhsMax =   5.06134350713124E-03  1.35478371723081E-02
 cg2d: Sum(rhs),rhsMax =   5.06144598766815E-03  1.35479382318311E-02
 cg2d: Sum(rhs),rhsMax =   5.06154632570286E-03  1.35480392398634E-02
 cg2d: Sum(rhs),rhsMax =   5.06164466170626E-03  1.35481402023717E-02
 cg2d: Sum(rhs),rhsMax =   5.06174132676841E-03  1.35482411153123E-02
 cg2d: Sum(rhs),rhsMax =   5.06183651656340E-03  1.35483419834132E-02
 cg2d: Sum(rhs),rhsMax =   5.06193050616550E-03  1.35484428011258E-02
 cg2d: Sum(rhs),rhsMax =   5.06202342535485E-03  1.35485435747032E-02
 cg2d: Sum(rhs),rhsMax =   5.06212935129674E-03  1.35486443027629E-02
 cg2d: Sum(rhs),rhsMax =   5.06223465613440E-03  1.35487449829930E-02
 cg2d: Sum(rhs),rhsMax =   5.06233965352674E-03  1.35488456185196E-02
 cg2d: Sum(rhs),rhsMax =   5.06244446148463E-03  1.35489462048775E-02
 cg2d: Sum(rhs),rhsMax =   5.06254941416417E-03  1.35490467491094E-02
 cg2d: Sum(rhs),rhsMax =   5.06265470172578E-03  1.35491472465441E-02
 cg2d: Sum(rhs),rhsMax =   5.06276055117787E-03  1.35492477015796E-02
 cg2d: Sum(rhs),rhsMax =   5.06286727451311E-03  1.35493481100483E-02
 cg2d: Sum(rhs),rhsMax =   5.06297498883781E-03  1.35494484771012E-02
 cg2d: Sum(rhs),rhsMax =   5.06308401417928E-03  1.35495487975356E-02
 cg2d: Sum(rhs),rhsMax =   5.06319458629241E-03  1.35496490771796E-02
 cg2d: Sum(rhs),rhsMax =   5.06330689176343E-03  1.35497493106089E-02
 cg2d: Sum(rhs),rhsMax =   5.06342120728623E-03  1.35498495037409E-02
 cg2d: Sum(rhs),rhsMax =   5.06353768232435E-03  1.35499496521568E-02
 cg2d: Sum(rhs),rhsMax =   5.06365665309186E-03  1.35500497596642E-02
 cg2d: Sum(rhs),rhsMax =   5.06377827079192E-03  1.35501498231840E-02
 cg2d: Sum(rhs),rhsMax =   5.06390278812073E-03  1.35502498468695E-02
 cg2d: Sum(rhs),rhsMax =   5.06401646973883E-03  1.35503498269832E-02
 cg2d: Sum(rhs),rhsMax =   5.06413338823100E-03  1.35504497663561E-02
 cg2d: Sum(rhs),rhsMax =   5.06425383143324E-03  1.35505496655722E-02
 cg2d: Sum(rhs),rhsMax =   5.06437794080504E-03  1.35506495236761E-02
 cg2d: Sum(rhs),rhsMax =   5.06450598315201E-03  1.35507493417104E-02
 cg2d: Sum(rhs),rhsMax =   5.06463811740838E-03  1.35508491185381E-02
 cg2d: Sum(rhs),rhsMax =   5.06477458062084E-03  1.35509488563518E-02
 cg2d: Sum(rhs),rhsMax =   5.06491554085106E-03  1.35510485536952E-02
 cg2d: Sum(rhs),rhsMax =   5.06506123316360E-03  1.35511482125477E-02
 cg2d: Sum(rhs),rhsMax =   5.06521175189683E-03  1.35512478315115E-02
 cg2d: Sum(rhs),rhsMax =   5.06536744238059E-03  1.35513474125139E-02
 cg2d: Sum(rhs),rhsMax =   5.06552842179663E-03  1.35514469538465E-02
 cg2d: Sum(rhs),rhsMax =   5.06569490143015E-03  1.35515464579712E-02
 cg2d: Sum(rhs),rhsMax =   5.06586700660817E-03  1.35516459228049E-02
 cg2d: Sum(rhs),rhsMax =   5.06604492680152E-03  1.35517453514715E-02
 cg2d: Sum(rhs),rhsMax =   5.06622889202723E-03  1.35518447417033E-02
 cg2d: Sum(rhs),rhsMax =   5.06640412275454E-03  1.35519440982955E-02
 cg2d: Sum(rhs),rhsMax =   5.06658548934419E-03  1.35520434148841E-02
 cg2d: Sum(rhs),rhsMax =   5.06677326864238E-03  1.35521426951756E-02
 cg2d: Sum(rhs),rhsMax =   5.06696751786141E-03  1.35522419385362E-02
 cg2d: Sum(rhs),rhsMax =   5.06716842850721E-03  1.35523411467493E-02
(PID.TID 0000.0001)      cg2d_init_res =   1.25796747341693E-03
(PID.TID 0000.0001)      cg2d_iters(min,last) =      -1     325
(PID.TID 0000.0001)      cg2d_last_res =   9.82982423769564E-08
(PID.TID 0000.0001) // =======================================================
(PID.TID 0000.0001) // Begin MONITOR dynamic field statistics
(PID.TID 0000.0001) // =======================================================
(PID.TID 0000.0001) %MON time_tsnumber                =                 19800
(PID.TID 0000.0001) %MON time_secondsf                =   2.3760000000000E+07
(PID.TID 0000.0001) %MON dynstat_eta_max              =   1.3874503296599E-01
(PID.TID 0000.0001) %MON dynstat_eta_min              =  -3.5692459649796E-01
(PID.TID 0000.0001) %MON dynstat_eta_mean             =  -3.2681109994499E-07
(PID.TID 0000.0001) %MON dynstat_eta_sd               =   1.2351710085760E-01
(PID.TID 0000.0001) %MON dynstat_eta_del2             =   7.4613008467628E-07
(PID.TID 0000.0001) %MON dynstat_uvel_max             =   1.3422724355551E-01
(PID.TID 0000.0001) %MON dynstat_uvel_min             =  -1.3288785996222E-01
(PID.TID 0000.0001) %MON dynstat_uvel_mean            =  -2.9283555049205E-08
(PID.TID 0000.0001) %MON dynstat_uvel_sd              =   5.1675981491956E-02
(PID.TID 0000.0001) %MON dynstat_uvel_del2            =   1.1149434683735E-06
(PID.TID 0000.0001) %MON dynstat_vvel_max             =   1.6442100877881E-01
(PID.TID 0000.0001) %MON dynstat_vvel_min             =  -1.2550711756849E-01
(PID.TID 0000.0001) %MON dynstat_vvel_mean            =   1.3938683099076E-08
(PID.TID 0000.0001) %MON dynstat_vvel_sd              =   4.9491417182125E-02
(PID.TID 0000.0001) %MON dynstat_vvel_del2            =   1.3121478616810E-06
(PID.TID 0000.0001) %MON dynstat_wvel_max             =   4.1704949643463E-09
(PID.TID 0000.0001) %MON dynstat_wvel_min             =  -6.6789395024534E-09
(PID.TID 0000.0001) %MON dynstat_wvel_mean            =   1.1304866260579E-20
(PID.TID 0000.0001) %MON dynstat_wvel_sd              =   2.0355218485216E-09
(PID.TID 0000.0001) %MON dynstat_wvel_del2            =   2.2924698172529E-14
(PID.TID 0000.0001) %MON dynstat_theta_max            =   2.0000000000000E+01
(PID.TID 0000.0001) %MON dynstat_theta_min            =   2.0000000000000E+01
(PID.TID 0000.0001) %MON dynstat_theta_mean           =   1.9999999999999E+01
(PID.TID 0000.0001) %MON dynstat_theta_sd             =   1.1972645097557E-12
(PID.TID 0000.0001) %MON dynstat_theta_del2           =   0.0000000000000E+00
(PID.TID 0000.0001) %MON dynstat_salt_max             =   3.0000000000000E+01
(PID.TID 0000.0001) %MON dynstat_salt_min             =   3.0000000000000E+01
(PID.TID 0000.0001) %MON dynstat_salt_mean            =   2.9999999999998E+01
(PID.TID 0000.0001) %MON dynstat_salt_sd              =   2.1529444893531E-12
(PID.TID 0000.0001) %MON dynstat_salt_del2            =   0.0000000000000E+00
(PID.TID 0000.0001) %MON trAdv_CFL_u_max              =   3.2214174063297E-02
(PID.TID 0000.0001) %MON trAdv_CFL_v_max              =   3.9460020026784E-02
(PID.TID 0000.0001) %MON trAdv_CFL_w_max              =   1.0477741852459E-09
(PID.TID 0000.0001) %MON advcfl_uvel_max              =   3.2214538453323E-02
(PID.TID 0000.0001) %MON advcfl_vvel_max              =   3.9461042106914E-02
(PID.TID 0000.0001) %MON advcfl_wvel_max              =   3.2058909611776E-09
(PID.TID 0000.0001) %MON advcfl_W_hf_max              =   0.0000000000000E+00
(PID.TID 0000.0001) %MON pe_b_mean                    =   1.5609462758050E-05
(PID.TID 0000.0001) %MON ke_max                       =   1.3517379289743E-02
(PID.TID 0000.0001) %MON ke_mean                      =   2.5483806180634E-03
(PID.TID 0000.0001) %MON ke_vol                       =   7.2529629296391E+15
(PID.TID 0000.0001) %MON vort_r_min                   =  -4.4449114507777E-06
(PID.TID 0000.0001) %MON vort_r_max                   =   3.5649684796995E-06
(PID.TID 0000.0001) %MON vort_a_mean                  =   1.0615000000000E-04
(PID.TID 0000.0001) %MON vort_a_sd                    =   3.6465647427375E-06
(PID.TID 0000.0001) %MON vort_p_mean                  =   1.1210870169429E-04
(PID.TID 0000.0001) %MON vort_p_sd                    =   2.1072022862192E-05
(PID.TID 0000.0001) %MON surfExpan_theta_mean         =   2.2607811973140E-19
(PID.TID 0000.0001) %MON surfExpan_salt_mean          =   3.3911800615517E-19
(PID.TID 0000.0001) // =======================================================
(PID.TID 0000.0001) // End MONITOR dynamic field statistics
(PID.TID 0000.0001) // =======================================================
 cg2d: Sum(rhs),rhsMax =   5.06737620297382E-03  1.35524403172503E-02
 cg2d: Sum(rhs),rhsMax =   5.06759093374827E-03  1.35525394548187E-02
 cg2d: Sum(rhs),rhsMax =   5.06781280524894E-03  1.35526385546119E-02
 cg2d: Sum(rhs),rhsMax =   5.06804188725483E-03  1.35527376221022E-02
 cg2d: Sum(rhs),rhsMax =   5.06826287492690E-03  1.35528366465930E-02
 cg2d: Sum(rhs),rhsMax =   5.06849108897041E-03  1.35529356427091E-02
 cg2d: Sum(rhs),rhsMax =   5.06872672925048E-03  1.35530346064018E-02
 cg2d: Sum(rhs),rhsMax =   5.06896991981316E-03  1.35531335338315E-02
 cg2d: Sum(rhs),rhsMax =   5.06920547206717E-03  1.35532324359829E-02
 cg2d: Sum(rhs),rhsMax =   5.06944845570332E-03  1.35533312974619E-02
 cg2d: Sum(rhs),rhsMax =   5.06969912302615E-03  1.35534301269560E-02
 cg2d: Sum(rhs),rhsMax =   5.06995747284734E-03  1.35535289220078E-02
 cg2d: Sum(rhs),rhsMax =   5.07022365048044E-03  1.35536276868983E-02
 cg2d: Sum(rhs),rhsMax =   5.07049769145042E-03  1.35537264170502E-02
 cg2d: Sum(rhs),rhsMax =   5.07077970486266E-03  1.35538251174694E-02
 cg2d: Sum(rhs),rhsMax =   5.07106974734505E-03  1.35539237843881E-02
 cg2d: Sum(rhs),rhsMax =   5.07136785302652E-03  1.35540224210124E-02
 cg2d: Sum(rhs),rhsMax =   5.07165720867169E-03  1.35541210182697E-02
 cg2d: Sum(rhs),rhsMax =   5.07195455264150E-03  1.35542195928156E-02
 cg2d: Sum(rhs),rhsMax =   5.07225990880826E-03  1.35543181356792E-02
 cg2d: Sum(rhs),rhsMax =   5.07257325840534E-03  1.35544166471941E-02
 cg2d: Sum(rhs),rhsMax =   5.07289481308301E-03  1.35545151296098E-02
 cg2d: Sum(rhs),rhsMax =   5.07322450632653E-03  1.35546135827786E-02
 cg2d: Sum(rhs),rhsMax =   5.07356248560400E-03  1.35547120068074E-02
 cg2d: Sum(rhs),rhsMax =   5.07389071800688E-03  1.35548104071996E-02
 cg2d: Sum(rhs),rhsMax =   5.07422689213968E-03  1.35549087717839E-02
 cg2d: Sum(rhs),rhsMax =   5.07457111831846E-03  1.35550071070572E-02
 cg2d: Sum(rhs),rhsMax =   5.07492334609336E-03  1.35551054143034E-02
 cg2d: Sum(rhs),rhsMax =   5.07526551080515E-03  1.35552036887128E-02
 cg2d: Sum(rhs),rhsMax =   5.07561538086467E-03  1.35553019395905E-02
 cg2d: Sum(rhs),rhsMax =   5.07597305242688E-03  1.35554001629010E-02
 cg2d: Sum(rhs),rhsMax =   5.07633834612786E-03  1.35554983575910E-02
 cg2d: Sum(rhs),rhsMax =   5.07671149372210E-03  1.35555965266288E-02
 cg2d: Sum(rhs),rhsMax =   5.07709231732653E-03  1.35556946679325E-02
 cg2d: Sum(rhs),rhsMax =   5.07748092301429E-03  1.35557927818354E-02
 cg2d: Sum(rhs),rhsMax =   5.07785758511124E-03  1.35558908701135E-02
 cg2d: Sum(rhs),rhsMax =   5.07824158684237E-03  1.35559889318438E-02
 cg2d: Sum(rhs),rhsMax =   5.07863296896043E-03  1.35560869680721E-02
 cg2d: Sum(rhs),rhsMax =   5.07903173028178E-03  1.35561849772909E-02
 cg2d: Sum(rhs),rhsMax =   5.07943768382173E-03  1.35562829613773E-02
 cg2d: Sum(rhs),rhsMax =   5.07985101655529E-03  1.35563809198956E-02
 cg2d: Sum(rhs),rhsMax =   5.08025122674311E-03  1.35564788559332E-02
 cg2d: Sum(rhs),rhsMax =   5.08065823048851E-03  1.35565767654898E-02
 cg2d: Sum(rhs),rhsMax =   5.08105260941994E-03  1.35566746468953E-02
 cg2d: Sum(rhs),rhsMax =   5.08145341753832E-03  1.35567725070510E-02
 cg2d: Sum(rhs),rhsMax =   5.08186074010116E-03  1.35568703446216E-02
 cg2d: Sum(rhs),rhsMax =   5.08227440831403E-03  1.35569681577646E-02
 cg2d: Sum(rhs),rhsMax =   5.08269454487011E-03  1.35570659479645E-02
 cg2d: Sum(rhs),rhsMax =   5.08312098276871E-03  1.35571637145078E-02
 cg2d: Sum(rhs),rhsMax =   5.08353316123704E-03  1.35572614648180E-02
 cg2d: Sum(rhs),rhsMax =   5.08395113952674E-03  1.35573591861114E-02
 cg2d: Sum(rhs),rhsMax =   5.08437502240129E-03  1.35574568838761E-02
 cg2d: Sum(rhs),rhsMax =   5.08480467760972E-03  1.35575545605599E-02
 cg2d: Sum(rhs),rhsMax =   5.08524006763785E-03  1.35576522170090E-02
 cg2d: Sum(rhs),rhsMax =   5.08568123662475E-03  1.35577498482053E-02
 cg2d: Sum(rhs),rhsMax =   5.08612794309759E-03  1.35578474609955E-02
 cg2d: Sum(rhs),rhsMax =   5.08655909723085E-03  1.35579450419526E-02
 cg2d: Sum(rhs),rhsMax =   5.08699543665415E-03  1.35580426120674E-02
 cg2d: Sum(rhs),rhsMax =   5.08743704325133E-03  1.35581401594767E-02
 cg2d: Sum(rhs),rhsMax =   5.08788361608059E-03  1.35582376881583E-02
 cg2d: Sum(rhs),rhsMax =   5.08833537263847E-03  1.35583351947643E-02
 cg2d: Sum(rhs),rhsMax =   5.08879192739699E-03  1.35584326834774E-02
 cg2d: Sum(rhs),rhsMax =   5.08923220723713E-03  1.35585301578339E-02
 cg2d: Sum(rhs),rhsMax =   5.08967695142773E-03  1.35586276070075E-02
 cg2d: Sum(rhs),rhsMax =   5.09012625847043E-03  1.35587250359182E-02
 cg2d: Sum(rhs),rhsMax =   5.09057996799524E-03  1.35588224465424E-02
 cg2d: Sum(rhs),rhsMax =   5.09103810298252E-03  1.35589198379144E-02
 cg2d: Sum(rhs),rhsMax =   5.09150048389423E-03  1.35590172113785E-02
 cg2d: Sum(rhs),rhsMax =   5.09196719005570E-03  1.35591145657249E-02
 cg2d: Sum(rhs),rhsMax =   5.09243781512581E-03  1.35592119035307E-02
 cg2d: Sum(rhs),rhsMax =   5.09289031562160E-03  1.35593092166627E-02
 cg2d: Sum(rhs),rhsMax =   5.09334653316104E-03  1.35594065169308E-02
(PID.TID 0000.0001)      cg2d_init_res =   1.24899039370295E-03
(PID.TID 0000.0001)      cg2d_iters(min,last) =      -1     337
(PID.TID 0000.0001)      cg2d_last_res =   9.57957140720137E-08
(PID.TID 0000.0001) // =======================================================
(PID.TID 0000.0001) // Begin MONITOR dynamic field statistics
(PID.TID 0000.0001) // =======================================================
(PID.TID 0000.0001) %MON time_tsnumber                =                 19872
(PID.TID 0000.0001) %MON time_secondsf                =   2.3846400000000E+07
(PID.TID 0000.0001) %MON dynstat_eta_max              =   1.3904100765916E-01
(PID.TID 0000.0001) %MON dynstat_eta_min              =  -3.5747620437565E-01
(PID.TID 0000.0001) %MON dynstat_eta_mean             =  -3.2868689898771E-07
(PID.TID 0000.0001) %MON dynstat_eta_sd               =   1.2363916125401E-01
(PID.TID 0000.0001) %MON dynstat_eta_del2             =   7.4680025626304E-07
(PID.TID 0000.0001) %MON dynstat_uvel_max             =   1.3433664422144E-01
(PID.TID 0000.0001) %MON dynstat_uvel_min             =  -1.3290633384873E-01
(PID.TID 0000.0001) %MON dynstat_uvel_mean            =  -1.9392188231905E-08
(PID.TID 0000.0001) %MON dynstat_uvel_sd              =   5.1708917510888E-02
(PID.TID 0000.0001) %MON dynstat_uvel_del2            =   1.1150160488765E-06
(PID.TID 0000.0001) %MON dynstat_vvel_max             =   1.6472777983574E-01
(PID.TID 0000.0001) %MON dynstat_vvel_min             =  -1.2566900253920E-01
(PID.TID 0000.0001) %MON dynstat_vvel_mean            =   1.8157662686079E-08
(PID.TID 0000.0001) %MON dynstat_vvel_sd              =   4.9572911871731E-02
(PID.TID 0000.0001) %MON dynstat_vvel_del2            =   1.3131624669888E-06
(PID.TID 0000.0001) %MON dynstat_wvel_max             =   3.7154539022595E-09
(PID.TID 0000.0001) %MON dynstat_wvel_min             =  -6.5600416506641E-09
(PID.TID 0000.0001) %MON dynstat_wvel_mean            =   9.8169793455317E-22
(PID.TID 0000.0001) %MON dynstat_wvel_sd              =   2.0247602978046E-09
(PID.TID 0000.0001) %MON dynstat_wvel_del2            =   2.2445256728266E-14
(PID.TID 0000.0001) %MON dynstat_theta_max            =   2.0000000000000E+01
(PID.TID 0000.0001) %MON dynstat_theta_min            =   2.0000000000000E+01
(PID.TID 0000.0001) %MON dynstat_theta_mean           =   1.9999999999999E+01
(PID.TID 0000.0001) %MON dynstat_theta_sd             =   1.1972645097557E-12
(PID.TID 0000.0001) %MON dynstat_theta_del2           =   0.0000000000000E+00
(PID.TID 0000.0001) %MON dynstat_salt_max             =   3.0000000000000E+01
(PID.TID 0000.0001) %MON dynstat_salt_min             =   3.0000000000000E+01
(PID.TID 0000.0001) %MON dynstat_salt_mean            =   2.9999999999998E+01
(PID.TID 0000.0001) %MON dynstat_salt_sd              =   2.1529444893531E-12
(PID.TID 0000.0001) %MON dynstat_salt_del2            =   0.0000000000000E+00
(PID.TID 0000.0001) %MON trAdv_CFL_u_max              =   3.2240428302572E-02
(PID.TID 0000.0001) %MON trAdv_CFL_v_max              =   3.9533644612623E-02
(PID.TID 0000.0001) %MON trAdv_CFL_w_max              =   9.3228578760923E-10
(PID.TID 0000.0001) %MON advcfl_uvel_max              =   3.2240794613145E-02
(PID.TID 0000.0001) %MON advcfl_vvel_max              =   3.9534667160578E-02
(PID.TID 0000.0001) %MON advcfl_wvel_max              =   3.1488199923187E-09
(PID.TID 0000.0001) %MON advcfl_W_hf_max              =   0.0000000000000E+00
(PID.TID 0000.0001) %MON pe_b_mean                    =   1.5640328745228E-05
(PID.TID 0000.0001) %MON ke_max                       =   1.3567469757252E-02
(PID.TID 0000.0001) %MON ke_mean                      =   2.5540939358256E-03
(PID.TID 0000.0001) %MON ke_vol                       =   7.2529629296391E+15
(PID.TID 0000.0001) %MON vort_r_min                   =  -4.4468297780203E-06
(PID.TID 0000.0001) %MON vort_r_max                   =   3.5714762753278E-06
(PID.TID 0000.0001) %MON vort_a_mean                  =   1.0615000000000E-04
(PID.TID 0000.0001) %MON vort_a_sd                    =   3.6467140751790E-06
(PID.TID 0000.0001) %MON vort_p_mean                  =   1.1210870169429E-04
(PID.TID 0000.0001) %MON vort_p_sd                    =   2.1072109777053E-05
(PID.TID 0000.0001) %MON surfExpan_theta_mean         =   1.9636510013368E-20
(PID.TID 0000.0001) %MON surfExpan_salt_mean          =   2.9454182646470E-20
(PID.TID 0000.0001) // =======================================================
(PID.TID 0000.0001) // End MONITOR dynamic field statistics
(PID.TID 0000.0001) // =======================================================
 cg2d: Sum(rhs),rhsMax =   5.09380658909901E-03  1.35595038021014E-02
 cg2d: Sum(rhs),rhsMax =   5.09427025484589E-03  1.35596010694006E-02
 cg2d: Sum(rhs),rhsMax =   5.09473760787731E-03  1.35596983201882E-02
 cg2d: Sum(rhs),rhsMax =   5.09520842940833E-03  1.35597955545228E-02
 cg2d: Sum(rhs),rhsMax =   5.09568280380209E-03  1.35598927721063E-02
 cg2d: Sum(rhs),rhsMax =   5.09616057210202E-03  1.35599899729302E-02
 cg2d: Sum(rhs),rhsMax =   5.09664170123774E-03  1.35600871581802E-02
 cg2d: Sum(rhs),rhsMax =   5.09712608895577E-03  1.35601843274150E-02
 cg2d: Sum(rhs),rhsMax =   5.09761371856767E-03  1.35602814824783E-02
 cg2d: Sum(rhs),rhsMax =   5.09810445828482E-03  1.35603786216133E-02
 cg2d: Sum(rhs),rhsMax =   5.09857426432801E-03  1.35604757527681E-02
 cg2d: Sum(rhs),rhsMax =   5.09904682423979E-03  1.35605728628124E-02
 cg2d: Sum(rhs),rhsMax =   5.09952217283395E-03  1.35606699592518E-02
 cg2d: Sum(rhs),rhsMax =   5.10000015782648E-03  1.35607670391117E-02
 cg2d: Sum(rhs),rhsMax =   5.10048069943708E-03  1.35608641068001E-02
 cg2d: Sum(rhs),rhsMax =   5.10096394730584E-03  1.35609611606944E-02
 cg2d: Sum(rhs),rhsMax =   5.10144970310805E-03  1.35610582007395E-02
 cg2d: Sum(rhs),rhsMax =   5.10193789881616E-03  1.35611552275500E-02
 cg2d: Sum(rhs),rhsMax =   5.10242837280076E-03  1.35612522420212E-02
 cg2d: Sum(rhs),rhsMax =   5.10289712366394E-03  1.35613492397788E-02
 cg2d: Sum(rhs),rhsMax =   5.10336792948326E-03  1.35614462264231E-02
 cg2d: Sum(rhs),rhsMax =   5.10384088948513E-03  1.35615432028390E-02
 cg2d: Sum(rhs),rhsMax =   5.10431568019173E-03  1.35616401654565E-02
 cg2d: Sum(rhs),rhsMax =   5.10479255984316E-03  1.35617371179907E-02
 cg2d: Sum(rhs),rhsMax =   5.10527123576137E-03  1.35618340588934E-02
 cg2d: Sum(rhs),rhsMax =   5.10575175521758E-03  1.35619309883193E-02
 cg2d: Sum(rhs),rhsMax =   5.10623408380673E-03  1.35620279065665E-02
 cg2d: Sum(rhs),rhsMax =   5.10671804014926E-03  1.35621248131939E-02
 cg2d: Sum(rhs),rhsMax =   5.10720364416021E-03  1.35622217083919E-02
 cg2d: Sum(rhs),rhsMax =   5.10766653418587E-03  1.35623185920818E-02
 cg2d: Sum(rhs),rhsMax =   5.10813080867404E-03  1.35624154679802E-02
 cg2d: Sum(rhs),rhsMax =   5.10859643251710E-03  1.35625123318961E-02
 cg2d: Sum(rhs),rhsMax =   5.10906340541011E-03  1.35626091879568E-02
 cg2d: Sum(rhs),rhsMax =   5.10953167794375E-03  1.35627060323666E-02
 cg2d: Sum(rhs),rhsMax =   5.11000108547527E-03  1.35628028698266E-02
 cg2d: Sum(rhs),rhsMax =   5.11047176787313E-03  1.35628996953498E-02
 cg2d: Sum(rhs),rhsMax =   5.11094356530341E-03  1.35629965145459E-02
 cg2d: Sum(rhs),rhsMax =   5.11141634845871E-03  1.35630933233415E-02
 cg2d: Sum(rhs),rhsMax =   5.11189026084852E-03  1.35631901241686E-02
 cg2d: Sum(rhs),rhsMax =   5.11236519684831E-03  1.35632869167120E-02
 cg2d: Sum(rhs),rhsMax =   5.11284107175092E-03  1.35633837008239E-02
 cg2d: Sum(rhs),rhsMax =   5.11331790384448E-03  1.35634804771018E-02
 cg2d: Sum(rhs),rhsMax =   5.11379546706863E-03  1.35635772458745E-02
 cg2d: Sum(rhs),rhsMax =   5.11427392514204E-03  1.35636740069117E-02
 cg2d: Sum(rhs),rhsMax =   5.11475311634033E-03  1.35637707599180E-02
 cg2d: Sum(rhs),rhsMax =   5.11523313351405E-03  1.35638675075373E-02
 cg2d: Sum(rhs),rhsMax =   5.11571378540328E-03  1.35639642473894E-02
 cg2d: Sum(rhs),rhsMax =   5.11619509171200E-03  1.35640609816364E-02
 cg2d: Sum(rhs),rhsMax =   5.11667671240790E-03  1.35641577093698E-02
 cg2d: Sum(rhs),rhsMax =   5.11715918175918E-03  1.35642544294622E-02
 cg2d: Sum(rhs),rhsMax =   5.11764216480223E-03  1.35643511460294E-02
 cg2d: Sum(rhs),rhsMax =   5.11812567576609E-03  1.35644478553373E-02
 cg2d: Sum(rhs),rhsMax =   5.11858431333954E-03  1.35645445613407E-02
 cg2d: Sum(rhs),rhsMax =   5.11904326197108E-03  1.35646412613049E-02
 cg2d: Sum(rhs),rhsMax =   5.11950263209143E-03  1.35647379535959E-02
 cg2d: Sum(rhs),rhsMax =   5.11996217236067E-03  1.35648346439755E-02
 cg2d: Sum(rhs),rhsMax =   5.12042204874079E-03  1.35649313267786E-02
 cg2d: Sum(rhs),rhsMax =   5.12088205741779E-03  1.35650280087061E-02
 cg2d: Sum(rhs),rhsMax =   5.12134206070199E-03  1.35651246817249E-02
 cg2d: Sum(rhs),rhsMax =   5.12180233276045E-03  1.35652213556561E-02
 cg2d: Sum(rhs),rhsMax =   5.12226275886071E-03  1.35653180232001E-02
 cg2d: Sum(rhs),rhsMax =   5.12272329965977E-03  1.35654146881942E-02
 cg2d: Sum(rhs),rhsMax =   5.12318366478453E-03  1.35655113467379E-02
 cg2d: Sum(rhs),rhsMax =   5.12364417801882E-03  1.35656080060526E-02
 cg2d: Sum(rhs),rhsMax =   5.12410464211181E-03  1.35657046596317E-02
 cg2d: Sum(rhs),rhsMax =   5.12456508359739E-03  1.35658013128142E-02
 cg2d: Sum(rhs),rhsMax =   5.12502539240286E-03  1.35658979608036E-02
 cg2d: Sum(rhs),rhsMax =   5.12548560948724E-03  1.35659946087497E-02
 cg2d: Sum(rhs),rhsMax =   5.12594547109924E-03  1.35660912517986E-02
 cg2d: Sum(rhs),rhsMax =   5.12640527776540E-03  1.35661878955739E-02
 cg2d: Sum(rhs),rhsMax =   5.12686480461219E-03  1.35662845362169E-02
 cg2d: Sum(rhs),rhsMax =   5.12732419854034E-03  1.35663811766261E-02
(PID.TID 0000.0001)      cg2d_init_res =   1.24008988177585E-03
(PID.TID 0000.0001)      cg2d_iters(min,last) =      -1     341
(PID.TID 0000.0001)      cg2d_last_res =   9.79144227529527E-08
(PID.TID 0000.0001) // =======================================================
(PID.TID 0000.0001) // Begin MONITOR dynamic field statistics
(PID.TID 0000.0001) // =======================================================
(PID.TID 0000.0001) %MON time_tsnumber                =                 19944
(PID.TID 0000.0001) %MON time_secondsf                =   2.3932800000000E+07
(PID.TID 0000.0001) %MON dynstat_eta_max              =   1.3930958543016E-01
(PID.TID 0000.0001) %MON dynstat_eta_min              =  -3.5801764673852E-01
(PID.TID 0000.0001) %MON dynstat_eta_mean             =  -3.3104948157994E-07
(PID.TID 0000.0001) %MON dynstat_eta_sd               =   1.2375920341287E-01
(PID.TID 0000.0001) %MON dynstat_eta_del2             =   7.4744233012119E-07
(PID.TID 0000.0001) %MON dynstat_uvel_max             =   1.3444786936092E-01
(PID.TID 0000.0001) %MON dynstat_uvel_min             =  -1.3292149877906E-01
(PID.TID 0000.0001) %MON dynstat_uvel_mean            =  -9.1516242549070E-09
(PID.TID 0000.0001) %MON dynstat_uvel_sd              =   5.1740980427132E-02
(PID.TID 0000.0001) %MON dynstat_uvel_del2            =   1.1150944777185E-06
(PID.TID 0000.0001) %MON dynstat_vvel_max             =   1.6503422515292E-01
(PID.TID 0000.0001) %MON dynstat_vvel_min             =  -1.2584443809003E-01
(PID.TID 0000.0001) %MON dynstat_vvel_mean            =   2.0612448047229E-08
(PID.TID 0000.0001) %MON dynstat_vvel_sd              =   4.9653862601489E-02
(PID.TID 0000.0001) %MON dynstat_vvel_del2            =   1.3137977099099E-06
(PID.TID 0000.0001) %MON dynstat_wvel_max             =   3.3916467148811E-09
(PID.TID 0000.0001) %MON dynstat_wvel_min             =  -6.4588881283998E-09
(PID.TID 0000.0001) %MON dynstat_wvel_mean            =  -4.2881502551207E-22
(PID.TID 0000.0001) %MON dynstat_wvel_sd              =   2.0160109380889E-09
(PID.TID 0000.0001) %MON dynstat_wvel_del2            =   2.2613542066575E-14
(PID.TID 0000.0001) %MON dynstat_theta_max            =   2.0000000000000E+01
(PID.TID 0000.0001) %MON dynstat_theta_min            =   2.0000000000000E+01
(PID.TID 0000.0001) %MON dynstat_theta_mean           =   1.9999999999999E+01
(PID.TID 0000.0001) %MON dynstat_theta_sd             =   1.1972645097557E-12
(PID.TID 0000.0001) %MON dynstat_theta_del2           =   0.0000000000000E+00
(PID.TID 0000.0001) %MON dynstat_salt_max             =   3.0000000000000E+01
(PID.TID 0000.0001) %MON dynstat_salt_min             =   3.0000000000000E+01
(PID.TID 0000.0001) %MON dynstat_salt_mean            =   2.9999999999998E+01
(PID.TID 0000.0001) %MON dynstat_salt_sd              =   2.1529444893531E-12
(PID.TID 0000.0001) %MON dynstat_salt_del2            =   0.0000000000000E+00
(PID.TID 0000.0001) %MON trAdv_CFL_u_max              =   3.2267112284251E-02
(PID.TID 0000.0001) %MON trAdv_CFL_v_max              =   3.9607194094871E-02
(PID.TID 0000.0001) %MON trAdv_CFL_w_max              =   8.5317916112074E-10
(PID.TID 0000.0001) %MON advcfl_uvel_max              =   3.2267488646621E-02
(PID.TID 0000.0001) %MON advcfl_vvel_max              =   3.9608214036700E-02
(PID.TID 0000.0001) %MON advcfl_wvel_max              =   3.1002663016319E-09
(PID.TID 0000.0001) %MON advcfl_W_hf_max              =   0.0000000000000E+00
(PID.TID 0000.0001) %MON pe_b_mean                    =   1.5670714106104E-05
(PID.TID 0000.0001) %MON ke_max                       =   1.3617622065351E-02
(PID.TID 0000.0001) %MON ke_mean                      =   2.5597430844836E-03
(PID.TID 0000.0001) %MON ke_vol                       =   7.2529629296391E+15
(PID.TID 0000.0001) %MON vort_r_min                   =  -4.4486854844960E-06
(PID.TID 0000.0001) %MON vort_r_max                   =   3.5765562321259E-06
(PID.TID 0000.0001) %MON vort_a_mean                  =   1.0615000000000E-04
(PID.TID 0000.0001) %MON vort_a_sd                    =   3.6468569903825E-06
(PID.TID 0000.0001) %MON vort_p_mean                  =   1.1210870169429E-04
(PID.TID 0000.0001) %MON vort_p_sd                    =   2.1072194941672E-05
(PID.TID 0000.0001) %MON surfExpan_theta_mean         =  -8.5775830882540E-21
(PID.TID 0000.0001) %MON surfExpan_salt_mean          =  -1.2865350855435E-20
(PID.TID 0000.0001) // =======================================================
(PID.TID 0000.0001) // End MONITOR dynamic field statistics
(PID.TID 0000.0001) // =======================================================
 cg2d: Sum(rhs),rhsMax =   5.12778321166779E-03  1.35664778141428E-02
 cg2d: Sum(rhs),rhsMax =   5.12824197986267E-03  1.35665744516137E-02
 cg2d: Sum(rhs),rhsMax =   5.12870030142472E-03  1.35666710866453E-02
 cg2d: Sum(rhs),rhsMax =   5.12915837669929E-03  1.35667677225214E-02
 cg2d: Sum(rhs),rhsMax =   5.12961579875543E-03  1.35668643562893E-02
 cg2d: Sum(rhs),rhsMax =   5.13007297301136E-03  1.35669609909529E-02
 cg2d: Sum(rhs),rhsMax =   5.13052961711104E-03  1.35670576245215E-02
 cg2d: Sum(rhs),rhsMax =   5.13098588726303E-03  1.35671542587417E-02
 cg2d: Sum(rhs),rhsMax =   5.13144153167117E-03  1.35672508925261E-02
 cg2d: Sum(rhs),rhsMax =   5.13189672522350E-03  1.35673475278966E-02
 cg2d: Sum(rhs),rhsMax =   5.13235138307277E-03  1.35674441631881E-02
 cg2d: Sum(rhs),rhsMax =   5.13280544455901E-03  1.35675408000991E-02
 cg2d: Sum(rhs),rhsMax =   5.13325895358236E-03  1.35676374370302E-02
 cg2d: Sum(rhs),rhsMax =   5.13371176014563E-03  1.35677340761507E-02
 cg2d: Sum(rhs),rhsMax =   5.13416392686377E-03  1.35678307151724E-02
 cg2d: Sum(rhs),rhsMax =   5.13461539267623E-03  1.35679273573956E-02
 cg2d: Sum(rhs),rhsMax =   5.13506618128199E-03  1.35680239999735E-02
 cg2d: Sum(rhs),rhsMax =   5.13551626508329E-03  1.35681206458239E-02
 cg2d: Sum(rhs),rhsMax =   5.13596551758641E-03  1.35682172921588E-02
 cg2d: Sum(rhs),rhsMax =   5.13641405030575E-03  1.35683139424404E-02
 cg2d: Sum(rhs),rhsMax =   5.13686174030044E-03  1.35684105942263E-02
 cg2d: Sum(rhs),rhsMax =   5.13730864464619E-03  1.35685072499994E-02
 cg2d: Sum(rhs),rhsMax =   5.13775474552489E-03  1.35686039074174E-02
 cg2d: Sum(rhs),rhsMax =   5.13819997435673E-03  1.35687005691512E-02
 cg2d: Sum(rhs),rhsMax =   5.13864427723241E-03  1.35687972329747E-02
 cg2d: Sum(rhs),rhsMax =   5.13908771370131E-03  1.35688939013582E-02
 cg2d: Sum(rhs),rhsMax =   5.13953011157826E-03  1.35689905722331E-02
 cg2d: Sum(rhs),rhsMax =   5.13997165024599E-03  1.35690872481668E-02
 cg2d: Sum(rhs),rhsMax =   5.14041227998634E-03  1.35691839273247E-02
 cg2d: Sum(rhs),rhsMax =   5.14085189881621E-03  1.35692806111326E-02
 cg2d: Sum(rhs),rhsMax =   5.14129037699267E-03  1.35693772981294E-02
 cg2d: Sum(rhs),rhsMax =   5.14172797713669E-03  1.35694739918779E-02
 cg2d: Sum(rhs),rhsMax =   5.14216449477004E-03  1.35695706890195E-02
 cg2d: Sum(rhs),rhsMax =   5.14260003237557E-03  1.35696673922853E-02
 cg2d: Sum(rhs),rhsMax =   5.14303443746858E-03  1.35697641001429E-02
 cg2d: Sum(rhs),rhsMax =   5.14346781084614E-03  1.35698608129181E-02
 cg2d: Sum(rhs),rhsMax =   5.14390002413822E-03  1.35699575300418E-02
 cg2d: Sum(rhs),rhsMax =   5.14435616614739E-03  1.35700542503165E-02
 cg2d: Sum(rhs),rhsMax =   5.14481106740112E-03  1.35701509801259E-02
 cg2d: Sum(rhs),rhsMax =   5.14526482844250E-03  1.35702477159911E-02
 cg2d: Sum(rhs),rhsMax =   5.14571728484319E-03  1.35703444581289E-02
 cg2d: Sum(rhs),rhsMax =   5.14616855703276E-03  1.35704412064946E-02
 cg2d: Sum(rhs),rhsMax =   5.14661835944294E-03  1.35705379623526E-02
 cg2d: Sum(rhs),rhsMax =   5.14706706922823E-03  1.35706347237772E-02
 cg2d: Sum(rhs),rhsMax =   5.14751442515273E-03  1.35707314929020E-02
 cg2d: Sum(rhs),rhsMax =   5.14796055345528E-03  1.35708282690005E-02
 cg2d: Sum(rhs),rhsMax =   5.14840530210595E-03  1.35709250525256E-02
 cg2d: Sum(rhs),rhsMax =   5.14884878915086E-03  1.35710218423002E-02
 cg2d: Sum(rhs),rhsMax =   5.14929096435308E-03  1.35711186401614E-02
 cg2d: Sum(rhs),rhsMax =   5.14973178157885E-03  1.35712154456843E-02
 cg2d: Sum(rhs),rhsMax =   5.15017127975166E-03  1.35713122598899E-02
 cg2d: Sum(rhs),rhsMax =   5.15060921050704E-03  1.35714090822365E-02
 cg2d: Sum(rhs),rhsMax =   5.15104589829661E-03  1.35715059126069E-02
 cg2d: Sum(rhs),rhsMax =   5.15148118887787E-03  1.35716027524694E-02
 cg2d: Sum(rhs),rhsMax =   5.15191509752403E-03  1.35716995992924E-02
 cg2d: Sum(rhs),rhsMax =   5.15234761853141E-03  1.35717964569208E-02
 cg2d: Sum(rhs),rhsMax =   5.15277870429290E-03  1.35718933215633E-02
 cg2d: Sum(rhs),rhsMax =   5.15320832695791E-03  1.35719901964483E-02
 cg2d: Sum(rhs),rhsMax =   5.15363652074193E-03  1.35720870792323E-02
 cg2d: Sum(rhs),rhsMax =   5.15406328666413E-03  1.35721839725291E-02
 cg2d: Sum(rhs),rhsMax =   5.15448860051521E-03  1.35722808744680E-02
 cg2d: Sum(rhs),rhsMax =   5.15491244679772E-03  1.35723777872481E-02
 cg2d: Sum(rhs),rhsMax =   5.15533483975050E-03  1.35724747089179E-02
 cg2d: Sum(rhs),rhsMax =   5.15575573381230E-03  1.35725716418360E-02
 cg2d: Sum(rhs),rhsMax =   5.15617513597243E-03  1.35726685841219E-02
 cg2d: Sum(rhs),rhsMax =   5.15659303222381E-03  1.35727655376988E-02
 cg2d: Sum(rhs),rhsMax =   5.15700939962627E-03  1.35728625026330E-02
 cg2d: Sum(rhs),rhsMax =   5.15742433367018E-03  1.35729594782239E-02
 cg2d: Sum(rhs),rhsMax =   5.15783779834926E-03  1.35730564628048E-02
 cg2d: Sum(rhs),rhsMax =   5.15824953790165E-03  1.35731534605884E-02
 cg2d: Sum(rhs),rhsMax =   5.15865993068338E-03  1.35732504680668E-02
 cg2d: Sum(rhs),rhsMax =   5.15906881105869E-03  1.35733474864203E-02
(PID.TID 0000.0001)      cg2d_init_res =   1.23189503793232E-03
(PID.TID 0000.0001)      cg2d_iters(min,last) =      -1     340
(PID.TID 0000.0001)      cg2d_last_res =   9.56847882587944E-08
(PID.TID 0000.0001) // =======================================================
(PID.TID 0000.0001) // Begin MONITOR dynamic field statistics
(PID.TID 0000.0001) // =======================================================
(PID.TID 0000.0001) %MON time_tsnumber                =                 20016
(PID.TID 0000.0001) %MON time_secondsf                =   2.4019200000000E+07
(PID.TID 0000.0001) %MON dynstat_eta_max              =   1.3954679036046E-01
(PID.TID 0000.0001) %MON dynstat_eta_min              =  -3.5854885035930E-01
(PID.TID 0000.0001) %MON dynstat_eta_mean             =  -3.3326663450185E-07
(PID.TID 0000.0001) %MON dynstat_eta_sd               =   1.2387742486197E-01
(PID.TID 0000.0001) %MON dynstat_eta_del2             =   7.4805579104679E-07
(PID.TID 0000.0001) %MON dynstat_uvel_max             =   1.3456326762744E-01
(PID.TID 0000.0001) %MON dynstat_uvel_min             =  -1.3293400954638E-01
(PID.TID 0000.0001) %MON dynstat_uvel_mean            =   9.9781457572432E-10
(PID.TID 0000.0001) %MON dynstat_uvel_sd              =   5.1772871839109E-02
(PID.TID 0000.0001) %MON dynstat_uvel_del2            =   1.1151942189341E-06
(PID.TID 0000.0001) %MON dynstat_vvel_max             =   1.6533942163457E-01
(PID.TID 0000.0001) %MON dynstat_vvel_min             =  -1.2603120588023E-01
(PID.TID 0000.0001) %MON dynstat_vvel_mean            =   2.1288795795442E-08
(PID.TID 0000.0001) %MON dynstat_vvel_sd              =   4.9733524016430E-02
(PID.TID 0000.0001) %MON dynstat_vvel_del2            =   1.3140553687990E-06
(PID.TID 0000.0001) %MON dynstat_wvel_max             =   3.2510417234153E-09
(PID.TID 0000.0001) %MON dynstat_wvel_min             =  -6.3780052494258E-09
(PID.TID 0000.0001) %MON dynstat_wvel_mean            =  -8.9514633663180E-21
(PID.TID 0000.0001) %MON dynstat_wvel_sd              =   2.0084110134931E-09
(PID.TID 0000.0001) %MON dynstat_wvel_del2            =   2.2279359250989E-14
(PID.TID 0000.0001) %MON dynstat_theta_max            =   2.0000000000000E+01
(PID.TID 0000.0001) %MON dynstat_theta_min            =   2.0000000000000E+01
(PID.TID 0000.0001) %MON dynstat_theta_mean           =   1.9999999999999E+01
(PID.TID 0000.0001) %MON dynstat_theta_sd             =   1.1972645097557E-12
(PID.TID 0000.0001) %MON dynstat_theta_del2           =   0.0000000000000E+00
(PID.TID 0000.0001) %MON dynstat_salt_max             =   3.0000000000000E+01
(PID.TID 0000.0001) %MON dynstat_salt_min             =   3.0000000000000E+01
(PID.TID 0000.0001) %MON dynstat_salt_mean            =   2.9999999999998E+01
(PID.TID 0000.0001) %MON dynstat_salt_sd              =   2.1529444893531E-12
(PID.TID 0000.0001) %MON dynstat_salt_del2            =   0.0000000000000E+00
(PID.TID 0000.0001) %MON trAdv_CFL_u_max              =   3.2294790343843E-02
(PID.TID 0000.0001) %MON trAdv_CFL_v_max              =   3.9680446912195E-02
(PID.TID 0000.0001) %MON trAdv_CFL_w_max              =   8.1690356505536E-10
(PID.TID 0000.0001) %MON advcfl_uvel_max              =   3.2295184230587E-02
(PID.TID 0000.0001) %MON advcfl_vvel_max              =   3.9681461192297E-02
(PID.TID 0000.0001) %MON advcfl_wvel_max              =   3.0614425197244E-09
(PID.TID 0000.0001) %MON advcfl_W_hf_max              =   0.0000000000000E+00
(PID.TID 0000.0001) %MON pe_b_mean                    =   1.5700667424120E-05
(PID.TID 0000.0001) %MON ke_max                       =   1.3667682481193E-02
(PID.TID 0000.0001) %MON ke_mean                      =   2.5653271063949E-03
(PID.TID 0000.0001) %MON ke_vol                       =   7.2529629296391E+15
(PID.TID 0000.0001) %MON vort_r_min                   =  -4.4505094909603E-06
(PID.TID 0000.0001) %MON vort_r_max                   =   3.5801417840157E-06
(PID.TID 0000.0001) %MON vort_a_mean                  =   1.0615000000000E-04
(PID.TID 0000.0001) %MON vort_a_sd                    =   3.6469935757597E-06
(PID.TID 0000.0001) %MON vort_p_mean                  =   1.1210870169429E-04
(PID.TID 0000.0001) %MON vort_p_sd                    =   2.1072277398959E-05
(PID.TID 0000.0001) %MON surfExpan_theta_mean         =  -1.7903446074610E-19
(PID.TID 0000.0001) %MON surfExpan_salt_mean          =  -2.6854994399841E-19
(PID.TID 0000.0001) // =======================================================
(PID.TID 0000.0001) // End MONITOR dynamic field statistics
(PID.TID 0000.0001) // =======================================================
 cg2d: Sum(rhs),rhsMax =   5.15947624498022E-03  1.35734445175390E-02
 cg2d: Sum(rhs),rhsMax =   5.15988213395955E-03  1.35735415597549E-02
 cg2d: Sum(rhs),rhsMax =   5.16031054066308E-03  1.35736386154485E-02
 cg2d: Sum(rhs),rhsMax =   5.16073736889423E-03  1.35737356821983E-02
 cg2d: Sum(rhs),rhsMax =   5.16116263120958E-03  1.35738327610434E-02
 cg2d: Sum(rhs),rhsMax =   5.16158623529364E-03  1.35739298518194E-02
 cg2d: Sum(rhs),rhsMax =   5.16200833507841E-03  1.35740269553938E-02
 cg2d: Sum(rhs),rhsMax =   5.16242877660313E-03  1.35741240712707E-02
 cg2d: Sum(rhs),rhsMax =   5.16284765295542E-03  1.35742212004183E-02
 cg2d: Sum(rhs),rhsMax =   5.16326476038383E-03  1.35743183411340E-02
 cg2d: Sum(rhs),rhsMax =   5.16368046413173E-03  1.35744154963289E-02
 cg2d: Sum(rhs),rhsMax =   5.16409447954335E-03  1.35745126659378E-02
 cg2d: Sum(rhs),rhsMax =   5.16450705542479E-03  1.35746098465852E-02
 cg2d: Sum(rhs),rhsMax =   5.16491801070720E-03  1.35747070426072E-02
 cg2d: Sum(rhs),rhsMax =   5.16532744200698E-03  1.35748042507900E-02
 cg2d: Sum(rhs),rhsMax =   5.16573529801852E-03  1.35749014746564E-02
 cg2d: Sum(rhs),rhsMax =   5.16614160631013E-03  1.35749987105018E-02
 cg2d: Sum(rhs),rhsMax =   5.16654638998073E-03  1.35750959617451E-02
 cg2d: Sum(rhs),rhsMax =   5.16694943558539E-03  1.35751932258353E-02
 cg2d: Sum(rhs),rhsMax =   5.16735111212244E-03  1.35752905058739E-02
 cg2d: Sum(rhs),rhsMax =   5.16775122760603E-03  1.35753877989557E-02
 cg2d: Sum(rhs),rhsMax =   5.16814987360644E-03  1.35754851078808E-02
 cg2d: Sum(rhs),rhsMax =   5.16854701829591E-03  1.35755824315124E-02
 cg2d: Sum(rhs),rhsMax =   5.16894269024005E-03  1.35756797696775E-02
 cg2d: Sum(rhs),rhsMax =   5.16933688620404E-03  1.35757771237097E-02
 cg2d: Sum(rhs),rhsMax =   5.16972960090995E-03  1.35758744930839E-02
 cg2d: Sum(rhs),rhsMax =   5.17014470086400E-03  1.35759718792271E-02
 cg2d: Sum(rhs),rhsMax =   5.17055820123944E-03  1.35760692797480E-02
 cg2d: Sum(rhs),rhsMax =   5.17097028478495E-03  1.35761666956745E-02
 cg2d: Sum(rhs),rhsMax =   5.17138076921229E-03  1.35762641272996E-02
 cg2d: Sum(rhs),rhsMax =   5.17178984118032E-03  1.35763615744878E-02
 cg2d: Sum(rhs),rhsMax =   5.17219738082501E-03  1.35764590372709E-02
 cg2d: Sum(rhs),rhsMax =   5.17260356435284E-03  1.35765565175581E-02
 cg2d: Sum(rhs),rhsMax =   5.17300822860156E-03  1.35766540136827E-02
 cg2d: Sum(rhs),rhsMax =   5.17341154603515E-03  1.35767515263621E-02
 cg2d: Sum(rhs),rhsMax =   5.17381327875070E-03  1.35768490551338E-02
 cg2d: Sum(rhs),rhsMax =   5.17421382956264E-03  1.35769466018397E-02
 cg2d: Sum(rhs),rhsMax =   5.17461292918898E-03  1.35770441645458E-02
 cg2d: Sum(rhs),rhsMax =   5.17501080781350E-03  1.35771417456212E-02
 cg2d: Sum(rhs),rhsMax =   5.17540729946005E-03  1.35772393421144E-02
 cg2d: Sum(rhs),rhsMax =   5.17580253045965E-03  1.35773369569738E-02
 cg2d: Sum(rhs),rhsMax =   5.17619644878347E-03  1.35774345883758E-02
 cg2d: Sum(rhs),rhsMax =   5.17658909742051E-03  1.35775322383088E-02
 cg2d: Sum(rhs),rhsMax =   5.17698051478659E-03  1.35776299049045E-02
 cg2d: Sum(rhs),rhsMax =   5.17737071441774E-03  1.35777275902875E-02
 cg2d: Sum(rhs),rhsMax =   5.17775968370031E-03  1.35778252926247E-02
 cg2d: Sum(rhs),rhsMax =   5.17814751244072E-03  1.35779230144321E-02
 cg2d: Sum(rhs),rhsMax =   5.17853402181866E-03  1.35780207536677E-02
 cg2d: Sum(rhs),rhsMax =   5.17891952358620E-03  1.35781185116742E-02
 cg2d: Sum(rhs),rhsMax =   5.17930390035512E-03  1.35782162872047E-02
 cg2d: Sum(rhs),rhsMax =   5.17968724516545E-03  1.35783140827918E-02
 cg2d: Sum(rhs),rhsMax =   5.18006950141033E-03  1.35784118960376E-02
 cg2d: Sum(rhs),rhsMax =   5.18045076350786E-03  1.35785097284060E-02
 cg2d: Sum(rhs),rhsMax =   5.18083097699522E-03  1.35786075780445E-02
 cg2d: Sum(rhs),rhsMax =   5.18121021207242E-03  1.35787054491676E-02
 cg2d: Sum(rhs),rhsMax =   5.18158847667462E-03  1.35788033384793E-02
 cg2d: Sum(rhs),rhsMax =   5.18196583143648E-03  1.35789012479870E-02
 cg2d: Sum(rhs),rhsMax =   5.18234227516410E-03  1.35789991754173E-02
 cg2d: Sum(rhs),rhsMax =   5.18271787218029E-03  1.35790971236651E-02
 cg2d: Sum(rhs),rhsMax =   5.18309261605007E-03  1.35791950901500E-02
 cg2d: Sum(rhs),rhsMax =   5.18346656899789E-03  1.35792930781603E-02
 cg2d: Sum(rhs),rhsMax =   5.18383968584509E-03  1.35793910847226E-02
 cg2d: Sum(rhs),rhsMax =   5.18421207462728E-03  1.35794891121592E-02
 cg2d: Sum(rhs),rhsMax =   5.18458373245591E-03  1.35795871585196E-02
 cg2d: Sum(rhs),rhsMax =   5.18495468378029E-03  1.35796852269535E-02
 cg2d: Sum(rhs),rhsMax =   5.18532495957702E-03  1.35797833137679E-02
 cg2d: Sum(rhs),rhsMax =   5.18571844486927E-03  1.35798814185267E-02
 cg2d: Sum(rhs),rhsMax =   5.18611131142006E-03  1.35799795483969E-02
 cg2d: Sum(rhs),rhsMax =   5.18650363791305E-03  1.35800776975312E-02
 cg2d: Sum(rhs),rhsMax =   5.18689534988211E-03  1.35801758686431E-02
 cg2d: Sum(rhs),rhsMax =   5.18728657023971E-03  1.35802740596195E-02
 cg2d: Sum(rhs),rhsMax =   5.18767725783548E-03  1.35803722724550E-02
(PID.TID 0000.0001)      cg2d_init_res =   1.22493854398570E-03
(PID.TID 0000.0001)      cg2d_iters(min,last) =      -1     337
(PID.TID 0000.0001)      cg2d_last_res =   9.96780254642331E-08
(PID.TID 0000.0001) // =======================================================
(PID.TID 0000.0001) // Begin MONITOR dynamic field statistics
(PID.TID 0000.0001) // =======================================================
(PID.TID 0000.0001) %MON time_tsnumber                =                 20088
(PID.TID 0000.0001) %MON time_secondsf                =   2.4105600000000E+07
(PID.TID 0000.0001) %MON dynstat_eta_max              =   1.3975156016110E-01
(PID.TID 0000.0001) %MON dynstat_eta_min              =  -3.5907009332039E-01
(PID.TID 0000.0001) %MON dynstat_eta_mean             =  -3.3528689400452E-07
(PID.TID 0000.0001) %MON dynstat_eta_sd               =   1.2399406711043E-01
(PID.TID 0000.0001) %MON dynstat_eta_del2             =   7.4864088346079E-07
(PID.TID 0000.0001) %MON dynstat_uvel_max             =   1.3468493456363E-01
(PID.TID 0000.0001) %MON dynstat_uvel_min             =  -1.3294450150560E-01
(PID.TID 0000.0001) %MON dynstat_uvel_mean            =   1.0634690576149E-08
(PID.TID 0000.0001) %MON dynstat_uvel_sd              =   5.1805267612657E-02
(PID.TID 0000.0001) %MON dynstat_uvel_del2            =   1.1153285511975E-06
(PID.TID 0000.0001) %MON dynstat_vvel_max             =   1.6564247371318E-01
(PID.TID 0000.0001) %MON dynstat_vvel_min             =  -1.2622664733942E-01
(PID.TID 0000.0001) %MON dynstat_vvel_mean            =   2.0245237144282E-08
(PID.TID 0000.0001) %MON dynstat_vvel_sd              =   4.9811211764814E-02
(PID.TID 0000.0001) %MON dynstat_vvel_del2            =   1.3139506835783E-06
(PID.TID 0000.0001) %MON dynstat_wvel_max             =   3.0890371836722E-09
(PID.TID 0000.0001) %MON dynstat_wvel_min             =  -6.3150641135871E-09
(PID.TID 0000.0001) %MON dynstat_wvel_mean            =  -1.6514132125365E-21
(PID.TID 0000.0001) %MON dynstat_wvel_sd              =   2.0009167402063E-09
(PID.TID 0000.0001) %MON dynstat_wvel_del2            =   2.2321951962081E-14
(PID.TID 0000.0001) %MON dynstat_theta_max            =   2.0000000000000E+01
(PID.TID 0000.0001) %MON dynstat_theta_min            =   2.0000000000000E+01
(PID.TID 0000.0001) %MON dynstat_theta_mean           =   1.9999999999999E+01
(PID.TID 0000.0001) %MON dynstat_theta_sd             =   1.1972645097557E-12
(PID.TID 0000.0001) %MON dynstat_theta_del2           =   0.0000000000000E+00
(PID.TID 0000.0001) %MON dynstat_salt_max             =   3.0000000000000E+01
(PID.TID 0000.0001) %MON dynstat_salt_min             =   3.0000000000000E+01
(PID.TID 0000.0001) %MON dynstat_salt_mean            =   2.9999999999998E+01
(PID.TID 0000.0001) %MON dynstat_salt_sd              =   2.1529444893531E-12
(PID.TID 0000.0001) %MON dynstat_salt_del2            =   0.0000000000000E+00
(PID.TID 0000.0001) %MON trAdv_CFL_u_max              =   3.2323966428279E-02
(PID.TID 0000.0001) %MON trAdv_CFL_v_max              =   3.9753187967021E-02
(PID.TID 0000.0001) %MON trAdv_CFL_w_max              =   7.6973187743786E-10
(PID.TID 0000.0001) %MON advcfl_uvel_max              =   3.2324384295272E-02
(PID.TID 0000.0001) %MON advcfl_vvel_max              =   3.9754193691162E-02
(PID.TID 0000.0001) %MON advcfl_wvel_max              =   3.0312307745218E-09
(PID.TID 0000.0001) %MON advcfl_W_hf_max              =   0.0000000000000E+00
(PID.TID 0000.0001) %MON pe_b_mean                    =   1.5730248654957E-05
(PID.TID 0000.0001) %MON ke_max                       =   1.3717499694775E-02
(PID.TID 0000.0001) %MON ke_mean                      =   2.5708465988830E-03
(PID.TID 0000.0001) %MON ke_vol                       =   7.2529629296391E+15
(PID.TID 0000.0001) %MON vort_r_min                   =  -4.4523284647627E-06
(PID.TID 0000.0001) %MON vort_r_max                   =   3.5822215404960E-06
(PID.TID 0000.0001) %MON vort_a_mean                  =   1.0615000000000E-04
(PID.TID 0000.0001) %MON vort_a_sd                    =   3.6471240885207E-06
(PID.TID 0000.0001) %MON vort_p_mean                  =   1.1210870169429E-04
(PID.TID 0000.0001) %MON vort_p_sd                    =   2.1072356324234E-05
(PID.TID 0000.0001) %MON surfExpan_theta_mean         =  -3.3040035113948E-20
(PID.TID 0000.0001) %MON surfExpan_salt_mean          =  -4.9555788266785E-20
(PID.TID 0000.0001) // =======================================================
(PID.TID 0000.0001) // End MONITOR dynamic field statistics
(PID.TID 0000.0001) // =======================================================
 cg2d: Sum(rhs),rhsMax =   5.18806745053399E-03  1.35804705058268E-02
 cg2d: Sum(rhs),rhsMax =   5.18845708875245E-03  1.35805687605770E-02
 cg2d: Sum(rhs),rhsMax =   5.18884650262370E-03  1.35806670356221E-02
 cg2d: Sum(rhs),rhsMax =   5.18923552274947E-03  1.35807653339356E-02
 cg2d: Sum(rhs),rhsMax =   5.18962428519359E-03  1.35808636525905E-02
 cg2d: Sum(rhs),rhsMax =   5.19001272585342E-03  1.35809619944736E-02
 cg2d: Sum(rhs),rhsMax =   5.19040092582812E-03  1.35810603567156E-02
 cg2d: Sum(rhs),rhsMax =   5.19078888874252E-03  1.35811587423295E-02
 cg2d: Sum(rhs),rhsMax =   5.19117664831518E-03  1.35812571480047E-02
 cg2d: Sum(rhs),rhsMax =   5.19156432449114E-03  1.35813555771532E-02
 cg2d: Sum(rhs),rhsMax =   5.19195190120549E-03  1.35814540278198E-02
 cg2d: Sum(rhs),rhsMax =   5.19233944762372E-03  1.35815525014770E-02
 cg2d: Sum(rhs),rhsMax =   5.19272691969823E-03  1.35816509971051E-02
 cg2d: Sum(rhs),rhsMax =   5.19311444840480E-03  1.35817495151047E-02
 cg2d: Sum(rhs),rhsMax =   5.19350195250379E-03  1.35818480552619E-02
 cg2d: Sum(rhs),rhsMax =   5.19388960444704E-03  1.35819466191684E-02
 cg2d: Sum(rhs),rhsMax =   5.19427732211319E-03  1.35820452056909E-02
 cg2d: Sum(rhs),rhsMax =   5.19466525641856E-03  1.35821438145174E-02
 cg2d: Sum(rhs),rhsMax =   5.19505339051928E-03  1.35822424464622E-02
 cg2d: Sum(rhs),rhsMax =   5.19544177439749E-03  1.35823411017742E-02
 cg2d: Sum(rhs),rhsMax =   5.19583039351784E-03  1.35824397803377E-02
 cg2d: Sum(rhs),rhsMax =   5.19621929982137E-03  1.35825384816427E-02
 cg2d: Sum(rhs),rhsMax =   5.19660861862124E-03  1.35826372067957E-02
 cg2d: Sum(rhs),rhsMax =   5.19699826472343E-03  1.35827359554275E-02
 cg2d: Sum(rhs),rhsMax =   5.19738842467829E-03  1.35828347275570E-02
 cg2d: Sum(rhs),rhsMax =   5.19777897472445E-03  1.35829335238136E-02
 cg2d: Sum(rhs),rhsMax =   5.19817012965925E-03  1.35830323436109E-02
 cg2d: Sum(rhs),rhsMax =   5.19856176535052E-03  1.35831311869571E-02
 cg2d: Sum(rhs),rhsMax =   5.19895405406287E-03  1.35832300536564E-02
 cg2d: Sum(rhs),rhsMax =   5.19934697968632E-03  1.35833289455956E-02
 cg2d: Sum(rhs),rhsMax =   5.19974055020325E-03  1.35834278617832E-02
 cg2d: Sum(rhs),rhsMax =   5.20013486830478E-03  1.35835268010647E-02
 cg2d: Sum(rhs),rhsMax =   5.20052995002074E-03  1.35836257648192E-02
 cg2d: Sum(rhs),rhsMax =   5.20092584865217E-03  1.35837247531296E-02
 cg2d: Sum(rhs),rhsMax =   5.20132253156455E-03  1.35838237665712E-02
 cg2d: Sum(rhs),rhsMax =   5.20172013888289E-03  1.35839228033618E-02
 cg2d: Sum(rhs),rhsMax =   5.20211856779651E-03  1.35840218654080E-02
 cg2d: Sum(rhs),rhsMax =   5.20251801401067E-03  1.35841209519697E-02
 cg2d: Sum(rhs),rhsMax =   5.20291841110859E-03  1.35842200649399E-02
 cg2d: Sum(rhs),rhsMax =   5.20331992811042E-03  1.35843192002423E-02
 cg2d: Sum(rhs),rhsMax =   5.20372246447723E-03  1.35844183622886E-02
 cg2d: Sum(rhs),rhsMax =   5.20412617016763E-03  1.35845175478780E-02
 cg2d: Sum(rhs),rhsMax =   5.20450669890160E-03  1.35846167629333E-02
 cg2d: Sum(rhs),rhsMax =   5.20488828815439E-03  1.35847160007468E-02
 cg2d: Sum(rhs),rhsMax =   5.20527116670434E-03  1.35848152628393E-02
 cg2d: Sum(rhs),rhsMax =   5.20565517889035E-03  1.35849145502676E-02
 cg2d: Sum(rhs),rhsMax =   5.20604048728389E-03  1.35850138633907E-02
 cg2d: Sum(rhs),rhsMax =   5.20642706794351E-03  1.35851132023966E-02
 cg2d: Sum(rhs),rhsMax =   5.20681499158290E-03  1.35852125663178E-02
 cg2d: Sum(rhs),rhsMax =   5.20720423714240E-03  1.35853119567492E-02
 cg2d: Sum(rhs),rhsMax =   5.20759492982993E-03  1.35854113718504E-02
 cg2d: Sum(rhs),rhsMax =   5.20798708564493E-03  1.35855108132709E-02
 cg2d: Sum(rhs),rhsMax =   5.20838075293033E-03  1.35856102804334E-02
 cg2d: Sum(rhs),rhsMax =   5.20877588156092E-03  1.35857097738034E-02
 cg2d: Sum(rhs),rhsMax =   5.20917262585069E-03  1.35858092932205E-02
 cg2d: Sum(rhs),rhsMax =   5.20957086168157E-03  1.35859088388641E-02
 cg2d: Sum(rhs),rhsMax =   5.20997080702870E-03  1.35860084105596E-02
 cg2d: Sum(rhs),rhsMax =   5.21037233044716E-03  1.35861080086663E-02
 cg2d: Sum(rhs),rhsMax =   5.21077563230224E-03  1.35862076330137E-02
 cg2d: Sum(rhs),rhsMax =   5.21118058700524E-03  1.35863072837088E-02
 cg2d: Sum(rhs),rhsMax =   5.21158739645025E-03  1.35864069611445E-02
 cg2d: Sum(rhs),rhsMax =   5.21199595132813E-03  1.35865066654371E-02
 cg2d: Sum(rhs),rhsMax =   5.21240638767683E-03  1.35866063957462E-02
 cg2d: Sum(rhs),rhsMax =   5.21281869246212E-03  1.35867061532656E-02
 cg2d: Sum(rhs),rhsMax =   5.21323272958541E-03  1.35868059371681E-02
 cg2d: Sum(rhs),rhsMax =   5.21364888317806E-03  1.35869057472780E-02
 cg2d: Sum(rhs),rhsMax =   5.21406701449677E-03  1.35870055850206E-02
 cg2d: Sum(rhs),rhsMax =   5.21448721328592E-03  1.35871054495944E-02
 cg2d: Sum(rhs),rhsMax =   5.21490943124511E-03  1.35872053413479E-02
 cg2d: Sum(rhs),rhsMax =   5.21533373269660E-03  1.35873052593892E-02
 cg2d: Sum(rhs),rhsMax =   5.21576010709803E-03  1.35874052044403E-02
 cg2d: Sum(rhs),rhsMax =   5.21618865507410E-03  1.35875051778310E-02
(PID.TID 0000.0001)      cg2d_init_res =   1.21956162455704E-03
(PID.TID 0000.0001)      cg2d_iters(min,last) =      -1     338
(PID.TID 0000.0001)      cg2d_last_res =   9.91255814993064E-08
(PID.TID 0000.0001) // =======================================================
(PID.TID 0000.0001) // Begin MONITOR dynamic field statistics
(PID.TID 0000.0001) // =======================================================
(PID.TID 0000.0001) %MON time_tsnumber                =                 20160
(PID.TID 0000.0001) %MON time_secondsf                =   2.4192000000000E+07
(PID.TID 0000.0001) %MON dynstat_eta_max              =   1.3992036380586E-01
(PID.TID 0000.0001) %MON dynstat_eta_min              =  -3.5958301456712E-01
(PID.TID 0000.0001) %MON dynstat_eta_mean             =  -3.3730922567037E-07
(PID.TID 0000.0001) %MON dynstat_eta_sd               =   1.2410940508185E-01
(PID.TID 0000.0001) %MON dynstat_eta_del2             =   7.4919858187628E-07
(PID.TID 0000.0001) %MON dynstat_uvel_max             =   1.3481461233174E-01
(PID.TID 0000.0001) %MON dynstat_uvel_min             =  -1.3295356893285E-01
(PID.TID 0000.0001) %MON dynstat_uvel_mean            =   1.9372907030950E-08
(PID.TID 0000.0001) %MON dynstat_uvel_sd              =   5.1838788899993E-02
(PID.TID 0000.0001) %MON dynstat_uvel_del2            =   1.1155083051245E-06
(PID.TID 0000.0001) %MON dynstat_vvel_max             =   1.6594255432065E-01
(PID.TID 0000.0001) %MON dynstat_vvel_min             =  -1.2642917778491E-01
(PID.TID 0000.0001) %MON dynstat_vvel_mean            =   1.7608864775548E-08
(PID.TID 0000.0001) %MON dynstat_vvel_sd              =   4.9886330380061E-02
(PID.TID 0000.0001) %MON dynstat_vvel_del2            =   1.3135113077211E-06
(PID.TID 0000.0001) %MON dynstat_wvel_max             =   3.0474113719538E-09
(PID.TID 0000.0001) %MON dynstat_wvel_min             =  -6.2729796627536E-09
(PID.TID 0000.0001) %MON dynstat_wvel_mean            =  -1.7528042352577E-21
(PID.TID 0000.0001) %MON dynstat_wvel_sd              =   1.9924605875972E-09
(PID.TID 0000.0001) %MON dynstat_wvel_del2            =   2.2182849762580E-14
(PID.TID 0000.0001) %MON dynstat_theta_max            =   2.0000000000000E+01
(PID.TID 0000.0001) %MON dynstat_theta_min            =   2.0000000000000E+01
(PID.TID 0000.0001) %MON dynstat_theta_mean           =   1.9999999999999E+01
(PID.TID 0000.0001) %MON dynstat_theta_sd             =   1.1972645097557E-12
(PID.TID 0000.0001) %MON dynstat_theta_del2           =   0.0000000000000E+00
(PID.TID 0000.0001) %MON dynstat_salt_max             =   3.0000000000000E+01
(PID.TID 0000.0001) %MON dynstat_salt_min             =   3.0000000000000E+01
(PID.TID 0000.0001) %MON dynstat_salt_mean            =   2.9999999999998E+01
(PID.TID 0000.0001) %MON dynstat_salt_sd              =   2.1529444893531E-12
(PID.TID 0000.0001) %MON dynstat_salt_del2            =   0.0000000000000E+00
(PID.TID 0000.0001) %MON trAdv_CFL_u_max              =   3.2355059982045E-02
(PID.TID 0000.0001) %MON trAdv_CFL_v_max              =   3.9825218472112E-02
(PID.TID 0000.0001) %MON trAdv_CFL_w_max              =   7.5489834335098E-10
(PID.TID 0000.0001) %MON advcfl_uvel_max              =   3.2355506959618E-02
(PID.TID 0000.0001) %MON advcfl_vvel_max              =   3.9826213036956E-02
(PID.TID 0000.0001) %MON advcfl_wvel_max              =   3.0110302381217E-09
(PID.TID 0000.0001) %MON advcfl_W_hf_max              =   0.0000000000000E+00
(PID.TID 0000.0001) %MON pe_b_mean                    =   1.5759526487858E-05
(PID.TID 0000.0001) %MON ke_max                       =   1.3766931936383E-02
(PID.TID 0000.0001) %MON ke_mean                      =   2.5763036353665E-03
(PID.TID 0000.0001) %MON ke_vol                       =   7.2529629296391E+15
(PID.TID 0000.0001) %MON vort_r_min                   =  -4.4541640733890E-06
(PID.TID 0000.0001) %MON vort_r_max                   =   3.5828379064975E-06
(PID.TID 0000.0001) %MON vort_a_mean                  =   1.0615000000000E-04
(PID.TID 0000.0001) %MON vort_a_sd                    =   3.6472489397510E-06
(PID.TID 0000.0001) %MON vort_p_mean                  =   1.1210870169429E-04
(PID.TID 0000.0001) %MON vort_p_sd                    =   2.1072431055732E-05
(PID.TID 0000.0001) %MON surfExpan_theta_mean         =  -3.5057602710623E-20
(PID.TID 0000.0001) %MON surfExpan_salt_mean          =  -5.2584159146399E-20
(PID.TID 0000.0001) // =======================================================
(PID.TID 0000.0001) // End MONITOR dynamic field statistics
(PID.TID 0000.0001) // =======================================================
 cg2d: Sum(rhs),rhsMax =   5.21661941579320E-03  1.35876051786743E-02
 cg2d: Sum(rhs),rhsMax =   5.21705236947915E-03  1.35877052060243E-02
 cg2d: Sum(rhs),rhsMax =   5.21748757816022E-03  1.35878052613572E-02
 cg2d: Sum(rhs),rhsMax =   5.21792506104774E-03  1.35879053436819E-02
 cg2d: Sum(rhs),rhsMax =   5.21836469823674E-03  1.35880054543862E-02
 cg2d: Sum(rhs),rhsMax =   5.21880682057659E-03  1.35881055908384E-02
 cg2d: Sum(rhs),rhsMax =   5.21922635904517E-03  1.35882057529898E-02
 cg2d: Sum(rhs),rhsMax =   5.21964809555216E-03  1.35883059462682E-02
 cg2d: Sum(rhs),rhsMax =   5.22007231572483E-03  1.35884061663079E-02
 cg2d: Sum(rhs),rhsMax =   5.22049874143850E-03  1.35885064154103E-02
 cg2d: Sum(rhs),rhsMax =   5.22092762634442E-03  1.35886066910668E-02
 cg2d: Sum(rhs),rhsMax =   5.22135895270812E-03  1.35887069960800E-02
 cg2d: Sum(rhs),rhsMax =   5.22179269090429E-03  1.35888073272667E-02
 cg2d: Sum(rhs),rhsMax =   5.22222892988145E-03  1.35889076875148E-02
 cg2d: Sum(rhs),rhsMax =   5.22266758334263E-03  1.35890080738910E-02
 cg2d: Sum(rhs),rhsMax =   5.22310866443319E-03  1.35891084904588E-02
 cg2d: Sum(rhs),rhsMax =   5.22355240077246E-03  1.35892089341334E-02
 cg2d: Sum(rhs),rhsMax =   5.22399874677834E-03  1.35893094075266E-02
 cg2d: Sum(rhs),rhsMax =   5.22444776147534E-03  1.35894099074583E-02
 cg2d: Sum(rhs),rhsMax =   5.22489935062822E-03  1.35895104369108E-02
 cg2d: Sum(rhs),rhsMax =   5.22535362512807E-03  1.35896109936211E-02
 cg2d: Sum(rhs),rhsMax =   5.22581046582726E-03  1.35897115792955E-02
 cg2d: Sum(rhs),rhsMax =   5.22627008733665E-03  1.35898121930938E-02
 cg2d: Sum(rhs),rhsMax =   5.22673244354850E-03  1.35899128364988E-02
 cg2d: Sum(rhs),rhsMax =   5.22717201706367E-03  1.35900135066819E-02
 cg2d: Sum(rhs),rhsMax =   5.22761416307670E-03  1.35901142073741E-02
 cg2d: Sum(rhs),rhsMax =   5.22805905112527E-03  1.35902149346466E-02
 cg2d: Sum(rhs),rhsMax =   5.22850652819318E-03  1.35903156921766E-02
 cg2d: Sum(rhs),rhsMax =   5.22895677455128E-03  1.35904164770920E-02
 cg2d: Sum(rhs),rhsMax =   5.22940963730856E-03  1.35905172917880E-02
 cg2d: Sum(rhs),rhsMax =   5.22986538906346E-03  1.35906181345158E-02
 cg2d: Sum(rhs),rhsMax =   5.23032384283433E-03  1.35907190071466E-02
 cg2d: Sum(rhs),rhsMax =   5.23078503892520E-03  1.35908199073249E-02
 cg2d: Sum(rhs),rhsMax =   5.23124915206127E-03  1.35909208376322E-02
 cg2d: Sum(rhs),rhsMax =   5.23171602307766E-03  1.35910217957553E-02
 cg2d: Sum(rhs),rhsMax =   5.23218577928842E-03  1.35911227834274E-02
 cg2d: Sum(rhs),rhsMax =   5.23265839822834E-03  1.35912237996001E-02
 cg2d: Sum(rhs),rhsMax =   5.23313390820025E-03  1.35913248456395E-02
 cg2d: Sum(rhs),rhsMax =   5.23361234990395E-03  1.35914259196712E-02
 cg2d: Sum(rhs),rhsMax =   5.23409370401916E-03  1.35915270238231E-02
 cg2d: Sum(rhs),rhsMax =   5.23457797252187E-03  1.35916281563799E-02
 cg2d: Sum(rhs),rhsMax =   5.23506522994322E-03  1.35917293187094E-02
 cg2d: Sum(rhs),rhsMax =   5.23555521971110E-03  1.35918305100517E-02
 cg2d: Sum(rhs),rhsMax =   5.23604842910084E-03  1.35919317306867E-02
 cg2d: Sum(rhs),rhsMax =   5.23651758435153E-03  1.35920329814660E-02
 cg2d: Sum(rhs),rhsMax =   5.23698955513668E-03  1.35921342617952E-02
 cg2d: Sum(rhs),rhsMax =   5.23746454307516E-03  1.35922355695165E-02
 cg2d: Sum(rhs),rhsMax =   5.23794226207834E-03  1.35923369083596E-02
 cg2d: Sum(rhs),rhsMax =   5.23842291288503E-03  1.35924382743929E-02
 cg2d: Sum(rhs),rhsMax =   5.23890657306442E-03  1.35925396717665E-02
 cg2d: Sum(rhs),rhsMax =   5.23939312322628E-03  1.35926410966054E-02
 cg2d: Sum(rhs),rhsMax =   5.23988263899566E-03  1.35927425532150E-02
 cg2d: Sum(rhs),rhsMax =   5.24037510383417E-03  1.35928440374367E-02
 cg2d: Sum(rhs),rhsMax =   5.24087051946229E-03  1.35929455528991E-02
 cg2d: Sum(rhs),rhsMax =   5.24136894391397E-03  1.35930470963345E-02
 cg2d: Sum(rhs),rhsMax =   5.24187039223571E-03  1.35931486711083E-02
 cg2d: Sum(rhs),rhsMax =   5.24237475446746E-03  1.35932502736758E-02
 cg2d: Sum(rhs),rhsMax =   5.24285497065666E-03  1.35933519047641E-02
 cg2d: Sum(rhs),rhsMax =   5.24333799101074E-03  1.35934535683416E-02
 cg2d: Sum(rhs),rhsMax =   5.24382398016159E-03  1.35935552601714E-02
 cg2d: Sum(rhs),rhsMax =   5.24431276507707E-03  1.35936569825854E-02
 cg2d: Sum(rhs),rhsMax =   5.24480447913896E-03  1.35937587340086E-02
 cg2d: Sum(rhs),rhsMax =   5.24529908322058E-03  1.35938605158191E-02
 cg2d: Sum(rhs),rhsMax =   5.24579625293223E-03  1.35939623279140E-02
 cg2d: Sum(rhs),rhsMax =   5.24629662387040E-03  1.35940641675424E-02
 cg2d: Sum(rhs),rhsMax =   5.24679987105460E-03  1.35941660382802E-02
 cg2d: Sum(rhs),rhsMax =   5.24727915559226E-03  1.35942679414659E-02
 cg2d: Sum(rhs),rhsMax =   5.24776119299184E-03  1.35943698720002E-02
 cg2d: Sum(rhs),rhsMax =   5.24824602859341E-03  1.35944718323872E-02
 cg2d: Sum(rhs),rhsMax =   5.24873344502378E-03  1.35945738224145E-02
 cg2d: Sum(rhs),rhsMax =   5.24922380947977E-03  1.35946758426010E-02
 cg2d: Sum(rhs),rhsMax =   5.24971682229426E-03  1.35947778912583E-02
(PID.TID 0000.0001)      cg2d_init_res =   1.21584793071191E-03
(PID.TID 0000.0001)      cg2d_iters(min,last) =      -1     343
(PID.TID 0000.0001)      cg2d_last_res =   9.76830200100998E-08
(PID.TID 0000.0001) // =======================================================
(PID.TID 0000.0001) // Begin MONITOR dynamic field statistics
(PID.TID 0000.0001) // =======================================================
(PID.TID 0000.0001) %MON time_tsnumber                =                 20232
(PID.TID 0000.0001) %MON time_secondsf                =   2.4278400000000E+07
(PID.TID 0000.0001) %MON dynstat_eta_max              =   1.4005282571907E-01
(PID.TID 0000.0001) %MON dynstat_eta_min              =  -3.6009065689425E-01
(PID.TID 0000.0001) %MON dynstat_eta_mean             =  -3.3966314597499E-07
(PID.TID 0000.0001) %MON dynstat_eta_sd               =   1.2422373544774E-01
(PID.TID 0000.0001) %MON dynstat_eta_del2             =   7.4973053531696E-07
(PID.TID 0000.0001) %MON dynstat_uvel_max             =   1.3495360632801E-01
(PID.TID 0000.0001) %MON dynstat_uvel_min             =  -1.3296174592436E-01
(PID.TID 0000.0001) %MON dynstat_uvel_mean            =   2.6878023074204E-08
(PID.TID 0000.0001) %MON dynstat_uvel_sd              =   5.1873976382036E-02
(PID.TID 0000.0001) %MON dynstat_uvel_del2            =   1.1157416658081E-06
(PID.TID 0000.0001) %MON dynstat_vvel_max             =   1.6623894103375E-01
(PID.TID 0000.0001) %MON dynstat_vvel_min             =  -1.2664063059549E-01
(PID.TID 0000.0001) %MON dynstat_vvel_mean            =   1.3568463868604E-08
(PID.TID 0000.0001) %MON dynstat_vvel_sd              =   4.9958396395518E-02
(PID.TID 0000.0001) %MON dynstat_vvel_del2            =   1.3127758321681E-06
(PID.TID 0000.0001) %MON dynstat_wvel_max             =   2.9864253406413E-09
(PID.TID 0000.0001) %MON dynstat_wvel_min             =  -6.2526423437521E-09
(PID.TID 0000.0001) %MON dynstat_wvel_mean            =   6.9058490995235E-21
(PID.TID 0000.0001) %MON dynstat_wvel_sd              =   1.9821104598488E-09
(PID.TID 0000.0001) %MON dynstat_wvel_del2            =   2.2304537424675E-14
(PID.TID 0000.0001) %MON dynstat_theta_max            =   2.0000000000000E+01
(PID.TID 0000.0001) %MON dynstat_theta_min            =   2.0000000000000E+01
(PID.TID 0000.0001) %MON dynstat_theta_mean           =   1.9999999999999E+01
(PID.TID 0000.0001) %MON dynstat_theta_sd             =   1.1972645097557E-12
(PID.TID 0000.0001) %MON dynstat_theta_del2           =   0.0000000000000E+00
(PID.TID 0000.0001) %MON dynstat_salt_max             =   3.0000000000000E+01
(PID.TID 0000.0001) %MON dynstat_salt_min             =   3.0000000000000E+01
(PID.TID 0000.0001) %MON dynstat_salt_mean            =   2.9999999999998E+01
(PID.TID 0000.0001) %MON dynstat_salt_sd              =   2.1529444893531E-12
(PID.TID 0000.0001) %MON dynstat_salt_del2            =   0.0000000000000E+00
(PID.TID 0000.0001) %MON trAdv_CFL_u_max              =   3.2388385871465E-02
(PID.TID 0000.0001) %MON trAdv_CFL_v_max              =   3.9896364644429E-02
(PID.TID 0000.0001) %MON trAdv_CFL_w_max              =   7.3919337308008E-10
(PID.TID 0000.0001) %MON advcfl_uvel_max              =   3.2388865518723E-02
(PID.TID 0000.0001) %MON advcfl_vvel_max              =   3.9897345848100E-02
(PID.TID 0000.0001) %MON advcfl_wvel_max              =   3.0012683250010E-09
(PID.TID 0000.0001) %MON advcfl_W_hf_max              =   0.0000000000000E+00
(PID.TID 0000.0001) %MON pe_b_mean                    =   1.5788575411908E-05
(PID.TID 0000.0001) %MON ke_max                       =   1.3815853372732E-02
(PID.TID 0000.0001) %MON ke_mean                      =   2.5817016284192E-03
(PID.TID 0000.0001) %MON ke_vol                       =   7.2529629296391E+15
(PID.TID 0000.0001) %MON vort_r_min                   =  -4.4561665581450E-06
(PID.TID 0000.0001) %MON vort_r_max                   =   3.5820836742242E-06
(PID.TID 0000.0001) %MON vort_a_mean                  =   1.0615000000000E-04
(PID.TID 0000.0001) %MON vort_a_sd                    =   3.6473686730325E-06
(PID.TID 0000.0001) %MON vort_p_mean                  =   1.1210870169429E-04
(PID.TID 0000.0001) %MON vort_p_sd                    =   2.1072501117338E-05
(PID.TID 0000.0001) %MON surfExpan_theta_mean         =   1.3811210244954E-19
(PID.TID 0000.0001) %MON surfExpan_salt_mean          =   2.0716582414329E-19
(PID.TID 0000.0001) // =======================================================
(PID.TID 0000.0001) // End MONITOR dynamic field statistics
(PID.TID 0000.0001) // =======================================================
 cg2d: Sum(rhs),rhsMax =   5.25021275547115E-03  1.35948799715935E-02
 cg2d: Sum(rhs),rhsMax =   5.25071142573202E-03  1.35949820812497E-02
 cg2d: Sum(rhs),rhsMax =   5.25121282530810E-03  1.35950842215935E-02
 cg2d: Sum(rhs),rhsMax =   5.25171701772200E-03  1.35951863903416E-02
 cg2d: Sum(rhs),rhsMax =   5.25222400363497E-03  1.35952885896326E-02
 cg2d: Sum(rhs),rhsMax =   5.25273384571345E-03  1.35953908187037E-02
 cg2d: Sum(rhs),rhsMax =   5.25324644198081E-03  1.35954930787332E-02
 cg2d: Sum(rhs),rhsMax =   5.25376186115406E-03  1.35955953673418E-02
 cg2d: Sum(rhs),rhsMax =   5.25428009020865E-03  1.35956976874679E-02
 cg2d: Sum(rhs),rhsMax =   5.25480114340179E-03  1.35958000362419E-02
 cg2d: Sum(rhs),rhsMax =   5.25529634914080E-03  1.35959024114762E-02
 cg2d: Sum(rhs),rhsMax =   5.25579403539874E-03  1.35960048215176E-02
 cg2d: Sum(rhs),rhsMax =   5.25629447470320E-03  1.35961072602602E-02
 cg2d: Sum(rhs),rhsMax =   5.25679737644713E-03  1.35962097305421E-02
 cg2d: Sum(rhs),rhsMax =   5.25730299821004E-03  1.35963122293521E-02
 cg2d: Sum(rhs),rhsMax =   5.25781116728937E-03  1.35964147603246E-02
 cg2d: Sum(rhs),rhsMax =   5.25832201133147E-03  1.35965173184536E-02
 cg2d: Sum(rhs),rhsMax =   5.25883553259656E-03  1.35966199078526E-02
 cg2d: Sum(rhs),rhsMax =   5.25935162214554E-03  1.35967225277512E-02
 cg2d: Sum(rhs),rhsMax =   5.25987040857184E-03  1.35968251780019E-02
 cg2d: Sum(rhs),rhsMax =   5.26039164373219E-03  1.35969278565496E-02
 cg2d: Sum(rhs),rhsMax =   5.26091565362612E-03  1.35970305660949E-02
 cg2d: Sum(rhs),rhsMax =   5.26144222905948E-03  1.35971333056278E-02
 cg2d: Sum(rhs),rhsMax =   5.26197148024464E-03  1.35972360747651E-02
 cg2d: Sum(rhs),rhsMax =   5.26250334115643E-03  1.35973388739875E-02
 cg2d: Sum(rhs),rhsMax =   5.26300751115096E-03  1.35974417064427E-02
 cg2d: Sum(rhs),rhsMax =   5.26351421520511E-03  1.35975445669311E-02
 cg2d: Sum(rhs),rhsMax =   5.26402336997763E-03  1.35976474556740E-02
 cg2d: Sum(rhs),rhsMax =   5.26453491516095E-03  1.35977503756653E-02
 cg2d: Sum(rhs),rhsMax =   5.26504887383374E-03  1.35978533254157E-02
 cg2d: Sum(rhs),rhsMax =   5.26556530444654E-03  1.35979563054025E-02
 cg2d: Sum(rhs),rhsMax =   5.26608406019312E-03  1.35980593147876E-02
 cg2d: Sum(rhs),rhsMax =   5.26657451497644E-03  1.35981623492142E-02
 cg2d: Sum(rhs),rhsMax =   5.26706708224934E-03  1.35982654199838E-02
 cg2d: Sum(rhs),rhsMax =   5.26756193193215E-03  1.35983685185811E-02
 cg2d: Sum(rhs),rhsMax =   5.26805888640349E-03  1.35984716490662E-02
 cg2d: Sum(rhs),rhsMax =   5.26852598084652E-03  1.35985748077709E-02
 cg2d: Sum(rhs),rhsMax =   5.26899497099743E-03  1.35986779981597E-02
 cg2d: Sum(rhs),rhsMax =   5.26946611416816E-03  1.35987812164331E-02
 cg2d: Sum(rhs),rhsMax =   5.26983724544022E-03  1.35988844619391E-02
 cg2d: Sum(rhs),rhsMax =   5.27017849226617E-03  1.35989877422258E-02
 cg2d: Sum(rhs),rhsMax =   5.27052111146680E-03  1.35990910517260E-02
 cg2d: Sum(rhs),rhsMax =   5.27086510686419E-03  1.35991943904613E-02
 cg2d: Sum(rhs),rhsMax =   5.27121024940517E-03  1.35992977593948E-02
 cg2d: Sum(rhs),rhsMax =   5.27155668898962E-03  1.35994011577158E-02
 cg2d: Sum(rhs),rhsMax =   5.27190415641192E-03  1.35995045856288E-02
 cg2d: Sum(rhs),rhsMax =   5.27225291948789E-03  1.35996080434035E-02
 cg2d: Sum(rhs),rhsMax =   5.27260304538033E-03  1.35997115320650E-02
 cg2d: Sum(rhs),rhsMax =   5.27295436152223E-03  1.35998150494356E-02
 cg2d: Sum(rhs),rhsMax =   5.27330686906194E-03  1.35999185977256E-02
 cg2d: Sum(rhs),rhsMax =   5.27366063086407E-03  1.36000221745651E-02
 cg2d: Sum(rhs),rhsMax =   5.27401558964430E-03  1.36001257818554E-02
 cg2d: Sum(rhs),rhsMax =   5.27437181998144E-03  1.36002294181271E-02
 cg2d: Sum(rhs),rhsMax =   5.27472921339887E-03  1.36003330849283E-02
 cg2d: Sum(rhs),rhsMax =   5.27508779433025E-03  1.36004367806887E-02
 cg2d: Sum(rhs),rhsMax =   5.27544759245052E-03  1.36005405070755E-02
 cg2d: Sum(rhs),rhsMax =   5.27580846301387E-03  1.36006442619216E-02
 cg2d: Sum(rhs),rhsMax =   5.27617066508139E-03  1.36007480472931E-02
 cg2d: Sum(rhs),rhsMax =   5.27653398310491E-03  1.36008518612421E-02
 cg2d: Sum(rhs),rhsMax =   5.27689852736787E-03  1.36009557056157E-02
 cg2d: Sum(rhs),rhsMax =   5.27726420456772E-03  1.36010595786361E-02
 cg2d: Sum(rhs),rhsMax =   5.27763101428499E-03  1.36011634821787E-02
 cg2d: Sum(rhs),rhsMax =   5.27799892602240E-03  1.36012674146387E-02
 cg2d: Sum(rhs),rhsMax =   5.27836804121353E-03  1.36013713771473E-02
 cg2d: Sum(rhs),rhsMax =   5.27873826673093E-03  1.36014753677983E-02
 cg2d: Sum(rhs),rhsMax =   5.27910975159844E-03  1.36015793892777E-02
 cg2d: Sum(rhs),rhsMax =   5.27948226339039E-03  1.36016834387088E-02
 cg2d: Sum(rhs),rhsMax =   5.27985594586808E-03  1.36017875190560E-02
 cg2d: Sum(rhs),rhsMax =   5.28023065327446E-03  1.36018916276136E-02
 cg2d: Sum(rhs),rhsMax =   5.28060636913887E-03  1.36019957655276E-02
 cg2d: Sum(rhs),rhsMax =   5.28098330858949E-03  1.36020999325184E-02
 cg2d: Sum(rhs),rhsMax =   5.28136139513668E-03  1.36022041302274E-02
(PID.TID 0000.0001)      cg2d_init_res =   1.21360015858556E-03
(PID.TID 0000.0001)      cg2d_iters(min,last) =      -1     351
(PID.TID 0000.0001)      cg2d_last_res =   9.94886681675664E-08
(PID.TID 0000.0001) // =======================================================
(PID.TID 0000.0001) // Begin MONITOR dynamic field statistics
(PID.TID 0000.0001) // =======================================================
(PID.TID 0000.0001) %MON time_tsnumber                =                 20304
(PID.TID 0000.0001) %MON time_secondsf                =   2.4364800000000E+07
(PID.TID 0000.0001) %MON dynstat_eta_max              =   1.4014987477764E-01
(PID.TID 0000.0001) %MON dynstat_eta_min              =  -3.6059136864520E-01
(PID.TID 0000.0001) %MON dynstat_eta_mean             =  -3.4188955629168E-07
(PID.TID 0000.0001) %MON dynstat_eta_sd               =   1.2433736441080E-01
(PID.TID 0000.0001) %MON dynstat_eta_del2             =   7.5023898772703E-07
(PID.TID 0000.0001) %MON dynstat_uvel_max             =   1.3510272255756E-01
(PID.TID 0000.0001) %MON dynstat_uvel_min             =  -1.3297535040133E-01
(PID.TID 0000.0001) %MON dynstat_uvel_mean            =   3.2881085795478E-08
(PID.TID 0000.0001) %MON dynstat_uvel_sd              =   5.1911268786346E-02
(PID.TID 0000.0001) %MON dynstat_uvel_del2            =   1.1160340255053E-06
(PID.TID 0000.0001) %MON dynstat_vvel_max             =   1.6653104572081E-01
(PID.TID 0000.0001) %MON dynstat_vvel_min             =  -1.2685254870537E-01
(PID.TID 0000.0001) %MON dynstat_vvel_mean            =   8.3641374231953E-09
(PID.TID 0000.0001) %MON dynstat_vvel_sd              =   5.0027055887233E-02
(PID.TID 0000.0001) %MON dynstat_vvel_del2            =   1.3117919590164E-06
(PID.TID 0000.0001) %MON dynstat_wvel_max             =   2.9105015657842E-09
(PID.TID 0000.0001) %MON dynstat_wvel_min             =  -6.2548337737098E-09
(PID.TID 0000.0001) %MON dynstat_wvel_mean            =  -7.6610783296075E-21
(PID.TID 0000.0001) %MON dynstat_wvel_sd              =   1.9692064542701E-09
(PID.TID 0000.0001) %MON dynstat_wvel_del2            =   2.2250460287730E-14
(PID.TID 0000.0001) %MON dynstat_theta_max            =   2.0000000000000E+01
(PID.TID 0000.0001) %MON dynstat_theta_min            =   2.0000000000000E+01
(PID.TID 0000.0001) %MON dynstat_theta_mean           =   1.9999999999999E+01
(PID.TID 0000.0001) %MON dynstat_theta_sd             =   1.1972645097557E-12
(PID.TID 0000.0001) %MON dynstat_theta_del2           =   0.0000000000000E+00
(PID.TID 0000.0001) %MON dynstat_salt_max             =   3.0000000000000E+01
(PID.TID 0000.0001) %MON dynstat_salt_min             =   3.0000000000000E+01
(PID.TID 0000.0001) %MON dynstat_salt_mean            =   2.9999999999998E+01
(PID.TID 0000.0001) %MON dynstat_salt_sd              =   2.1529444893531E-12
(PID.TID 0000.0001) %MON dynstat_salt_del2            =   0.0000000000000E+00
(PID.TID 0000.0001) %MON trAdv_CFL_u_max              =   3.2424139280361E-02
(PID.TID 0000.0001) %MON trAdv_CFL_v_max              =   3.9966484843918E-02
(PID.TID 0000.0001) %MON trAdv_CFL_w_max              =   7.3159580063809E-10
(PID.TID 0000.0001) %MON advcfl_uvel_max              =   3.2424653413813E-02
(PID.TID 0000.0001) %MON advcfl_vvel_max              =   3.9967450972993E-02
(PID.TID 0000.0001) %MON advcfl_wvel_max              =   3.0023202113807E-09
(PID.TID 0000.0001) %MON advcfl_W_hf_max              =   0.0000000000000E+00
(PID.TID 0000.0001) %MON pe_b_mean                    =   1.5817472626448E-05
(PID.TID 0000.0001) %MON ke_max                       =   1.3864159467831E-02
(PID.TID 0000.0001) %MON ke_mean                      =   2.5870451422959E-03
(PID.TID 0000.0001) %MON ke_vol                       =   7.2529629296391E+15
(PID.TID 0000.0001) %MON vort_r_min                   =  -4.4584522072630E-06
(PID.TID 0000.0001) %MON vort_r_max                   =   3.5800967807138E-06
(PID.TID 0000.0001) %MON vort_a_mean                  =   1.0615000000000E-04
(PID.TID 0000.0001) %MON vort_a_sd                    =   3.6474839386137E-06
(PID.TID 0000.0001) %MON vort_p_mean                  =   1.1210870169429E-04
(PID.TID 0000.0001) %MON vort_p_sd                    =   2.1072566232845E-05
(PID.TID 0000.0001) %MON surfExpan_theta_mean         =  -1.5323608122220E-19
(PID.TID 0000.0001) %MON surfExpan_salt_mean          =  -2.2985789790516E-19
(PID.TID 0000.0001) // =======================================================
(PID.TID 0000.0001) // End MONITOR dynamic field statistics
(PID.TID 0000.0001) // =======================================================
 cg2d: Sum(rhs),rhsMax =   5.28174064312542E-03  1.36023083551857E-02
 cg2d: Sum(rhs),rhsMax =   5.28212084363878E-03  1.36024126103831E-02
 cg2d: Sum(rhs),rhsMax =   5.28250224710480E-03  1.36025168938329E-02
 cg2d: Sum(rhs),rhsMax =   5.28288460135153E-03  1.36026212074776E-02
 cg2d: Sum(rhs),rhsMax =   5.28323603607700E-03  1.36027255552280E-02
 cg2d: Sum(rhs),rhsMax =   5.28358825642115E-03  1.36028299265898E-02
 cg2d: Sum(rhs),rhsMax =   5.28394152080044E-03  1.36029343264333E-02
 cg2d: Sum(rhs),rhsMax =   5.28429566853784E-03  1.36030387562053E-02
 cg2d: Sum(rhs),rhsMax =   5.28465073626344E-03  1.36031432137520E-02
 cg2d: Sum(rhs),rhsMax =   5.28500663901155E-03  1.36032477021599E-02
 cg2d: Sum(rhs),rhsMax =   5.28536350031869E-03  1.36033522168176E-02
 cg2d: Sum(rhs),rhsMax =   5.28572128490300E-03  1.36034567612026E-02
 cg2d: Sum(rhs),rhsMax =   5.28607993166084E-03  1.36035613345804E-02
 cg2d: Sum(rhs),rhsMax =   5.28643951609504E-03  1.36036659369214E-02
 cg2d: Sum(rhs),rhsMax =   5.28680001358115E-03  1.36037705662809E-02
 cg2d: Sum(rhs),rhsMax =   5.28716136239847E-03  1.36038752262712E-02
 cg2d: Sum(rhs),rhsMax =   5.28752354388742E-03  1.36039799143506E-02
 cg2d: Sum(rhs),rhsMax =   5.28788663261212E-03  1.36040846308936E-02
 cg2d: Sum(rhs),rhsMax =   5.28825056972912E-03  1.36041893748253E-02
 cg2d: Sum(rhs),rhsMax =   5.28861543304256E-03  1.36042941492547E-02
 cg2d: Sum(rhs),rhsMax =   5.28898109916829E-03  1.36043989511832E-02
 cg2d: Sum(rhs),rhsMax =   5.28934772364827E-03  1.36045037819439E-02
 cg2d: Sum(rhs),rhsMax =   5.28971514518082E-03  1.36046086404298E-02
 cg2d: Sum(rhs),rhsMax =   5.29008342924660E-03  1.36047135279509E-02
 cg2d: Sum(rhs),rhsMax =   5.29045253839861E-03  1.36048184430765E-02
 cg2d: Sum(rhs),rhsMax =   5.29082243445437E-03  1.36049233862005E-02
 cg2d: Sum(rhs),rhsMax =   5.29119313049566E-03  1.36050283578357E-02
 cg2d: Sum(rhs),rhsMax =   5.29156470861543E-03  1.36051333574572E-02
 cg2d: Sum(rhs),rhsMax =   5.29193707598630E-03  1.36052383851016E-02
 cg2d: Sum(rhs),rhsMax =   5.29231037078528E-03  1.36053434406747E-02
 cg2d: Sum(rhs),rhsMax =   5.29268441587279E-03  1.36054485239824E-02
 cg2d: Sum(rhs),rhsMax =   5.29305917851072E-03  1.36055536360498E-02
 cg2d: Sum(rhs),rhsMax =   5.29343479558514E-03  1.36056587757962E-02
 cg2d: Sum(rhs),rhsMax =   5.29381120801195E-03  1.36057639433264E-02
 cg2d: Sum(rhs),rhsMax =   5.29418842212053E-03  1.36058691384805E-02
 cg2d: Sum(rhs),rhsMax =   5.29456637083597E-03  1.36059743614185E-02
 cg2d: Sum(rhs),rhsMax =   5.29494512977861E-03  1.36060796118314E-02
 cg2d: Sum(rhs),rhsMax =   5.29532473945758E-03  1.36061848895093E-02
 cg2d: Sum(rhs),rhsMax =   5.29570512262777E-03  1.36062901954217E-02
 cg2d: Sum(rhs),rhsMax =   5.29608590428158E-03  1.36063955295545E-02
 cg2d: Sum(rhs),rhsMax =   5.29646776435230E-03  1.36065008898274E-02
 cg2d: Sum(rhs),rhsMax =   5.29685036101704E-03  1.36066062774601E-02
 cg2d: Sum(rhs),rhsMax =   5.29723379287325E-03  1.36067116927929E-02
 cg2d: Sum(rhs),rhsMax =   5.29761791402780E-03  1.36068171348297E-02
 cg2d: Sum(rhs),rhsMax =   5.29800285638707E-03  1.36069226049818E-02
 cg2d: Sum(rhs),rhsMax =   5.29838818895272E-03  1.36070281013541E-02
 cg2d: Sum(rhs),rhsMax =   5.29877449241319E-03  1.36071336270722E-02
 cg2d: Sum(rhs),rhsMax =   5.29916153374032E-03  1.36072391779886E-02
 cg2d: Sum(rhs),rhsMax =   5.29954930877662E-03  1.36073447565497E-02
 cg2d: Sum(rhs),rhsMax =   5.29993779364151E-03  1.36074503613188E-02
 cg2d: Sum(rhs),rhsMax =   5.30032681489140E-03  1.36075559929890E-02
 cg2d: Sum(rhs),rhsMax =   5.30071677397815E-03  1.36076616503626E-02
 cg2d: Sum(rhs),rhsMax =   5.30110721939771E-03  1.36077673370498E-02
 cg2d: Sum(rhs),rhsMax =   5.30149846443000E-03  1.36078730493141E-02
 cg2d: Sum(rhs),rhsMax =   5.30189045449470E-03  1.36079787883397E-02
 cg2d: Sum(rhs),rhsMax =   5.30228307864611E-03  1.36080845527776E-02
 cg2d: Sum(rhs),rhsMax =   5.30267647630419E-03  1.36081903453697E-02
 cg2d: Sum(rhs),rhsMax =   5.30307043843026E-03  1.36082961627427E-02
 cg2d: Sum(rhs),rhsMax =   5.30346507197364E-03  1.36084020090194E-02
 cg2d: Sum(rhs),rhsMax =   5.30386039494316E-03  1.36085078791944E-02
 cg2d: Sum(rhs),rhsMax =   5.30425637402200E-03  1.36086137768297E-02
 cg2d: Sum(rhs),rhsMax =   5.30465303968692E-03  1.36087196987596E-02
 cg2d: Sum(rhs),rhsMax =   5.30505041569494E-03  1.36088256491157E-02
 cg2d: Sum(rhs),rhsMax =   5.30544840364242E-03  1.36089316236384E-02
 cg2d: Sum(rhs),rhsMax =   5.30584699715420E-03  1.36090376262810E-02
 cg2d: Sum(rhs),rhsMax =   5.30624629417101E-03  1.36091436528076E-02
 cg2d: Sum(rhs),rhsMax =   5.30664562726937E-03  1.36092497070378E-02
 cg2d: Sum(rhs),rhsMax =   5.30704617129073E-03  1.36093557868157E-02
 cg2d: Sum(rhs),rhsMax =   5.30744724599882E-03  1.36094618918353E-02
 cg2d: Sum(rhs),rhsMax =   5.30784893383810E-03  1.36095680226368E-02
 cg2d: Sum(rhs),rhsMax =   5.30825134096132E-03  1.36096741778731E-02
 cg2d: Sum(rhs),rhsMax =   5.30862036039327E-03  1.36097803653312E-02
(PID.TID 0000.0001)      cg2d_init_res =   1.21236343758247E-03
(PID.TID 0000.0001)      cg2d_iters(min,last) =      -1     353
(PID.TID 0000.0001)      cg2d_last_res =   9.47953208083364E-08
(PID.TID 0000.0001) // =======================================================
(PID.TID 0000.0001) // Begin MONITOR dynamic field statistics
(PID.TID 0000.0001) // =======================================================
(PID.TID 0000.0001) %MON time_tsnumber                =                 20376
(PID.TID 0000.0001) %MON time_secondsf                =   2.4451200000000E+07
(PID.TID 0000.0001) %MON dynstat_eta_max              =   1.4021366573366E-01
(PID.TID 0000.0001) %MON dynstat_eta_min              =  -3.6108648729072E-01
(PID.TID 0000.0001) %MON dynstat_eta_mean             =  -3.4384486501725E-07
(PID.TID 0000.0001) %MON dynstat_eta_sd               =   1.2445059553182E-01
(PID.TID 0000.0001) %MON dynstat_eta_del2             =   7.5072667769306E-07
(PID.TID 0000.0001) %MON dynstat_uvel_max             =   1.3526222847456E-01
(PID.TID 0000.0001) %MON dynstat_uvel_min             =  -1.3300241694471E-01
(PID.TID 0000.0001) %MON dynstat_uvel_mean            =   3.7186810009534E-08
(PID.TID 0000.0001) %MON dynstat_uvel_sd              =   5.1950986501735E-02
(PID.TID 0000.0001) %MON dynstat_uvel_del2            =   1.1163878819518E-06
(PID.TID 0000.0001) %MON dynstat_vvel_max             =   1.6681843670324E-01
(PID.TID 0000.0001) %MON dynstat_vvel_min             =  -1.2705920431051E-01
(PID.TID 0000.0001) %MON dynstat_vvel_mean            =   2.2742016981958E-09
(PID.TID 0000.0001) %MON dynstat_vvel_sd              =   5.0092095954840E-02
(PID.TID 0000.0001) %MON dynstat_vvel_del2            =   1.3106144083590E-06
(PID.TID 0000.0001) %MON dynstat_wvel_max             =   2.8465938754380E-09
(PID.TID 0000.0001) %MON dynstat_wvel_min             =  -6.2690594326705E-09
(PID.TID 0000.0001) %MON dynstat_wvel_mean            =  -1.8122190440773E-20
(PID.TID 0000.0001) %MON dynstat_wvel_sd              =   1.9534572931849E-09
(PID.TID 0000.0001) %MON dynstat_wvel_del2            =   2.1968266855698E-14
(PID.TID 0000.0001) %MON dynstat_theta_max            =   2.0000000000000E+01
(PID.TID 0000.0001) %MON dynstat_theta_min            =   2.0000000000000E+01
(PID.TID 0000.0001) %MON dynstat_theta_mean           =   1.9999999999999E+01
(PID.TID 0000.0001) %MON dynstat_theta_sd             =   1.1972645097557E-12
(PID.TID 0000.0001) %MON dynstat_theta_del2           =   0.0000000000000E+00
(PID.TID 0000.0001) %MON dynstat_salt_max             =   3.0000000000000E+01
(PID.TID 0000.0001) %MON dynstat_salt_min             =   3.0000000000000E+01
(PID.TID 0000.0001) %MON dynstat_salt_mean            =   2.9999999999998E+01
(PID.TID 0000.0001) %MON dynstat_salt_sd              =   2.1529444893531E-12
(PID.TID 0000.0001) %MON dynstat_salt_del2            =   0.0000000000000E+00
(PID.TID 0000.0001) %MON trAdv_CFL_u_max              =   3.2462386230051E-02
(PID.TID 0000.0001) %MON trAdv_CFL_v_max              =   4.0035474918598E-02
(PID.TID 0000.0001) %MON trAdv_CFL_w_max              =   7.1584339741724E-10
(PID.TID 0000.0001) %MON advcfl_uvel_max              =   3.2462934833895E-02
(PID.TID 0000.0001) %MON advcfl_vvel_max              =   4.0036424808779E-02
(PID.TID 0000.0001) %MON advcfl_wvel_max              =   3.0091485276818E-09
(PID.TID 0000.0001) %MON advcfl_W_hf_max              =   0.0000000000000E+00
(PID.TID 0000.0001) %MON pe_b_mean                    =   1.5846294946922E-05
(PID.TID 0000.0001) %MON ke_max                       =   1.3911771117323E-02
(PID.TID 0000.0001) %MON ke_mean                      =   2.5923396658157E-03
(PID.TID 0000.0001) %MON ke_vol                       =   7.2529629296391E+15
(PID.TID 0000.0001) %MON vort_r_min                   =  -4.4607856968721E-06
(PID.TID 0000.0001) %MON vort_r_max                   =   3.5770534884730E-06
(PID.TID 0000.0001) %MON vort_a_mean                  =   1.0615000000000E-04
(PID.TID 0000.0001) %MON vort_a_sd                    =   3.6475954643111E-06
(PID.TID 0000.0001) %MON vort_p_mean                  =   1.1210870169429E-04
(PID.TID 0000.0001) %MON vort_p_sd                    =   2.1072626331392E-05
(PID.TID 0000.0001) %MON surfExpan_theta_mean         =  -3.6245402548913E-19
(PID.TID 0000.0001) %MON surfExpan_salt_mean          =  -5.4367620077572E-19
(PID.TID 0000.0001) // =======================================================
(PID.TID 0000.0001) // End MONITOR dynamic field statistics
(PID.TID 0000.0001) // =======================================================
 cg2d: Sum(rhs),rhsMax =   5.30898978070401E-03  1.36098865703354E-02
 cg2d: Sum(rhs),rhsMax =   5.30935987289758E-03  1.36099928027019E-02
 cg2d: Sum(rhs),rhsMax =   5.30973007847902E-03  1.36100990598452E-02
 cg2d: Sum(rhs),rhsMax =   5.31010113644146E-03  1.36102053434182E-02
 cg2d: Sum(rhs),rhsMax =   5.31047252725856E-03  1.36103116508172E-02
 cg2d: Sum(rhs),rhsMax =   5.31084463816452E-03  1.36104179836746E-02
 cg2d: Sum(rhs),rhsMax =   5.31121722460376E-03  1.36105243407303E-02
 cg2d: Sum(rhs),rhsMax =   5.31159030371230E-03  1.36106307237327E-02
 cg2d: Sum(rhs),rhsMax =   5.31196375412744E-03  1.36107371311809E-02
 cg2d: Sum(rhs),rhsMax =   5.31233788153770E-03  1.36108435640270E-02
 cg2d: Sum(rhs),rhsMax =   5.31271234799402E-03  1.36109500204633E-02
 cg2d: Sum(rhs),rhsMax =   5.31308749165895E-03  1.36110565016542E-02
 cg2d: Sum(rhs),rhsMax =   5.31346299041761E-03  1.36111630068935E-02
 cg2d: Sum(rhs),rhsMax =   5.31383907448572E-03  1.36112695376768E-02
 cg2d: Sum(rhs),rhsMax =   5.31421557010804E-03  1.36113760924842E-02
 cg2d: Sum(rhs),rhsMax =   5.31459256997896E-03  1.36114826717558E-02
 cg2d: Sum(rhs),rhsMax =   5.31497000373466E-03  1.36115892744810E-02
 cg2d: Sum(rhs),rhsMax =   5.31534778152418E-03  1.36116959024065E-02
 cg2d: Sum(rhs),rhsMax =   5.31572620824236E-03  1.36118025525508E-02
 cg2d: Sum(rhs),rhsMax =   5.31610502582565E-03  1.36119092277329E-02
 cg2d: Sum(rhs),rhsMax =   5.31648441602216E-03  1.36120159266953E-02
 cg2d: Sum(rhs),rhsMax =   5.31686423296939E-03  1.36121226500600E-02
 cg2d: Sum(rhs),rhsMax =   5.31724447553303E-03  1.36122293964050E-02
 cg2d: Sum(rhs),rhsMax =   5.31762512663200E-03  1.36123361668139E-02
 cg2d: Sum(rhs),rhsMax =   5.31800609607984E-03  1.36124429604524E-02
 cg2d: Sum(rhs),rhsMax =   5.31838761716205E-03  1.36125497775223E-02
 cg2d: Sum(rhs),rhsMax =   5.31876966667521E-03  1.36126566175030E-02
 cg2d: Sum(rhs),rhsMax =   5.31915215216694E-03  1.36127634814614E-02
 cg2d: Sum(rhs),rhsMax =   5.31953506332076E-03  1.36128703684062E-02
 cg2d: Sum(rhs),rhsMax =   5.31991828106780E-03  1.36129772792495E-02
 cg2d: Sum(rhs),rhsMax =   5.32030193728076E-03  1.36130842111847E-02
 cg2d: Sum(rhs),rhsMax =   5.32068608440576E-03  1.36131911675917E-02
 cg2d: Sum(rhs),rhsMax =   5.32107068887958E-03  1.36132981460109E-02
 cg2d: Sum(rhs),rhsMax =   5.32145565550472E-03  1.36134051475044E-02
 cg2d: Sum(rhs),rhsMax =   5.32184107307525E-03  1.36135121713842E-02
 cg2d: Sum(rhs),rhsMax =   5.32222677544976E-03  1.36136192192306E-02
 cg2d: Sum(rhs),rhsMax =   5.32261289389889E-03  1.36137262885453E-02
 cg2d: Sum(rhs),rhsMax =   5.32299948053603E-03  1.36138333806390E-02
 cg2d: Sum(rhs),rhsMax =   5.32338649632100E-03  1.36139404941016E-02
 cg2d: Sum(rhs),rhsMax =   5.32377386628416E-03  1.36140476308585E-02
 cg2d: Sum(rhs),rhsMax =   5.32416168106575E-03  1.36141547894594E-02
 cg2d: Sum(rhs),rhsMax =   5.32454985417065E-03  1.36142619702036E-02
 cg2d: Sum(rhs),rhsMax =   5.32493844458904E-03  1.36143691720963E-02
 cg2d: Sum(rhs),rhsMax =   5.32532738240341E-03  1.36144763965356E-02
 cg2d: Sum(rhs),rhsMax =   5.32571671573671E-03  1.36145836424192E-02
 cg2d: Sum(rhs),rhsMax =   5.32610638784538E-03  1.36146909100785E-02
 cg2d: Sum(rhs),rhsMax =   5.32649640196269E-03  1.36147981984714E-02
 cg2d: Sum(rhs),rhsMax =   5.32688677228917E-03  1.36149055095470E-02
 cg2d: Sum(rhs),rhsMax =   5.32727760834432E-03  1.36150128412414E-02
 cg2d: Sum(rhs),rhsMax =   5.32766876867907E-03  1.36151201948268E-02
 cg2d: Sum(rhs),rhsMax =   5.32806027832722E-03  1.36152275686804E-02
 cg2d: Sum(rhs),rhsMax =   5.32845205984531E-03  1.36153349652720E-02
 cg2d: Sum(rhs),rhsMax =   5.32884426909146E-03  1.36154423809264E-02
 cg2d: Sum(rhs),rhsMax =   5.32923682202273E-03  1.36155498178674E-02
 cg2d: Sum(rhs),rhsMax =   5.32962971265951E-03  1.36156572756486E-02
 cg2d: Sum(rhs),rhsMax =   5.33002300628438E-03  1.36157647550432E-02
 cg2d: Sum(rhs),rhsMax =   5.33041660937896E-03  1.36158722544200E-02
 cg2d: Sum(rhs),rhsMax =   5.33081057301081E-03  1.36159797748894E-02
 cg2d: Sum(rhs),rhsMax =   5.33120486575607E-03  1.36160873146731E-02
 cg2d: Sum(rhs),rhsMax =   5.33159946128071E-03  1.36161948762052E-02
 cg2d: Sum(rhs),rhsMax =   5.33199441691239E-03  1.36163024563083E-02
 cg2d: Sum(rhs),rhsMax =   5.33238953581195E-03  1.36164100571013E-02
 cg2d: Sum(rhs),rhsMax =   5.33278513507921E-03  1.36165176775913E-02
 cg2d: Sum(rhs),rhsMax =   5.33318095038219E-03  1.36166253191557E-02
 cg2d: Sum(rhs),rhsMax =   5.33357713347580E-03  1.36167329792822E-02
 cg2d: Sum(rhs),rhsMax =   5.33397366125310E-03  1.36168406601361E-02
 cg2d: Sum(rhs),rhsMax =   5.33437050011836E-03  1.36169483594883E-02
 cg2d: Sum(rhs),rhsMax =   5.33476764999249E-03  1.36170560789387E-02
 cg2d: Sum(rhs),rhsMax =   5.33516518939941E-03  1.36171638169510E-02
 cg2d: Sum(rhs),rhsMax =   5.33556287371278E-03  1.36172715750899E-02
 cg2d: Sum(rhs),rhsMax =   5.33596088428307E-03  1.36173793519367E-02
 cg2d: Sum(rhs),rhsMax =   5.33635925462935E-03  1.36174871489590E-02
(PID.TID 0000.0001)      cg2d_init_res =   1.21149191435708E-03
(PID.TID 0000.0001)      cg2d_iters(min,last) =      -1     353
(PID.TID 0000.0001)      cg2d_last_res =   9.59037139238991E-08
(PID.TID 0000.0001) // =======================================================
(PID.TID 0000.0001) // Begin MONITOR dynamic field statistics
(PID.TID 0000.0001) // =======================================================
(PID.TID 0000.0001) %MON time_tsnumber                =                 20448
(PID.TID 0000.0001) %MON time_secondsf                =   2.4537600000000E+07
(PID.TID 0000.0001) %MON dynstat_eta_max              =   1.4024745566141E-01
(PID.TID 0000.0001) %MON dynstat_eta_min              =  -3.6157744027326E-01
(PID.TID 0000.0001) %MON dynstat_eta_mean             =  -3.4583907677456E-07
(PID.TID 0000.0001) %MON dynstat_eta_sd               =   1.2456371813830E-01
(PID.TID 0000.0001) %MON dynstat_eta_del2             =   7.5119672166367E-07
(PID.TID 0000.0001) %MON dynstat_uvel_max             =   1.3543183911570E-01
(PID.TID 0000.0001) %MON dynstat_uvel_min             =  -1.3313071005169E-01
(PID.TID 0000.0001) %MON dynstat_uvel_mean            =   3.9680949735039E-08
(PID.TID 0000.0001) %MON dynstat_uvel_sd              =   5.1993320846338E-02
(PID.TID 0000.0001) %MON dynstat_uvel_del2            =   1.1168027962482E-06
(PID.TID 0000.0001) %MON dynstat_vvel_max             =   1.6710085255434E-01
(PID.TID 0000.0001) %MON dynstat_vvel_min             =  -1.2725754428504E-01
(PID.TID 0000.0001) %MON dynstat_vvel_mean            =  -4.3970270910772E-09
(PID.TID 0000.0001) %MON dynstat_vvel_sd              =   5.0153449913627E-02
(PID.TID 0000.0001) %MON dynstat_vvel_del2            =   1.3093026487609E-06
(PID.TID 0000.0001) %MON dynstat_wvel_max             =   2.7522168308496E-09
(PID.TID 0000.0001) %MON dynstat_wvel_min             =  -6.3034713780507E-09
(PID.TID 0000.0001) %MON dynstat_wvel_mean            =  -5.0146031647429E-21
(PID.TID 0000.0001) %MON dynstat_wvel_sd              =   1.9349845924491E-09
(PID.TID 0000.0001) %MON dynstat_wvel_del2            =   2.1984420333687E-14
(PID.TID 0000.0001) %MON dynstat_theta_max            =   2.0000000000000E+01
(PID.TID 0000.0001) %MON dynstat_theta_min            =   2.0000000000000E+01
(PID.TID 0000.0001) %MON dynstat_theta_mean           =   1.9999999999999E+01
(PID.TID 0000.0001) %MON dynstat_theta_sd             =   1.1972645097557E-12
(PID.TID 0000.0001) %MON dynstat_theta_del2           =   0.0000000000000E+00
(PID.TID 0000.0001) %MON dynstat_salt_max             =   3.0000000000000E+01
(PID.TID 0000.0001) %MON dynstat_salt_min             =   3.0000000000000E+01
(PID.TID 0000.0001) %MON dynstat_salt_mean            =   2.9999999999998E+01
(PID.TID 0000.0001) %MON dynstat_salt_sd              =   2.1529444893531E-12
(PID.TID 0000.0001) %MON dynstat_salt_del2            =   0.0000000000000E+00
(PID.TID 0000.0001) %MON trAdv_CFL_u_max              =   3.2503060165517E-02
(PID.TID 0000.0001) %MON trAdv_CFL_v_max              =   4.0103271545501E-02
(PID.TID 0000.0001) %MON trAdv_CFL_w_max              =   6.9225455315916E-10
(PID.TID 0000.0001) %MON advcfl_uvel_max              =   3.2503641387768E-02
(PID.TID 0000.0001) %MON advcfl_vvel_max              =   4.0104204613041E-02
(PID.TID 0000.0001) %MON advcfl_wvel_max              =   3.0256662614644E-09
(PID.TID 0000.0001) %MON advcfl_W_hf_max              =   0.0000000000000E+00
(PID.TID 0000.0001) %MON pe_b_mean                    =   1.5875115843813E-05
(PID.TID 0000.0001) %MON ke_max                       =   1.3958637375795E-02
(PID.TID 0000.0001) %MON ke_mean                      =   2.5975913566718E-03
(PID.TID 0000.0001) %MON ke_vol                       =   7.2529629296391E+15
(PID.TID 0000.0001) %MON vort_r_min                   =  -4.4631661931094E-06
(PID.TID 0000.0001) %MON vort_r_max                   =   3.5731603103948E-06
(PID.TID 0000.0001) %MON vort_a_mean                  =   1.0615000000000E-04
(PID.TID 0000.0001) %MON vort_a_sd                    =   3.6477040242177E-06
(PID.TID 0000.0001) %MON vort_p_mean                  =   1.1210870169429E-04
(PID.TID 0000.0001) %MON vort_p_sd                    =   2.1072681543873E-05
(PID.TID 0000.0001) %MON surfExpan_theta_mean         =  -1.0032797677077E-19
(PID.TID 0000.0001) %MON surfExpan_salt_mean          =  -1.5049361834567E-19
(PID.TID 0000.0001) // =======================================================
(PID.TID 0000.0001) // End MONITOR dynamic field statistics
(PID.TID 0000.0001) // =======================================================
 cg2d: Sum(rhs),rhsMax =   5.33675792488225E-03  1.36175949635550E-02
 cg2d: Sum(rhs),rhsMax =   5.33715690061641E-03  1.36177027970616E-02
 cg2d: Sum(rhs),rhsMax =   5.33755614096059E-03  1.36178106492985E-02
 cg2d: Sum(rhs),rhsMax =   5.33795566913266E-03  1.36179185212078E-02
 cg2d: Sum(rhs),rhsMax =   5.33835553860219E-03  1.36180264103243E-02
 cg2d: Sum(rhs),rhsMax =   5.33875562270287E-03  1.36181343189222E-02
 cg2d: Sum(rhs),rhsMax =   5.33915604376959E-03  1.36182422449337E-02
 cg2d: Sum(rhs),rhsMax =   5.33955657023630E-03  1.36183501901301E-02
 cg2d: Sum(rhs),rhsMax =   5.33995738658446E-03  1.36184581520905E-02
 cg2d: Sum(rhs),rhsMax =   5.34035853669770E-03  1.36185661334206E-02
 cg2d: Sum(rhs),rhsMax =   5.34076002818206E-03  1.36186741315608E-02
 cg2d: Sum(rhs),rhsMax =   5.34116179748403E-03  1.36187821481868E-02
 cg2d: Sum(rhs),rhsMax =   5.34156382156308E-03  1.36188901818265E-02
 cg2d: Sum(rhs),rhsMax =   5.34196595467015E-03  1.36189982337561E-02
 cg2d: Sum(rhs),rhsMax =   5.34236849908458E-03  1.36191063017526E-02
 cg2d: Sum(rhs),rhsMax =   5.34277124729428E-03  1.36192143881784E-02
 cg2d: Sum(rhs),rhsMax =   5.34317428977160E-03  1.36193224913163E-02
 cg2d: Sum(rhs),rhsMax =   5.34357761971284E-03  1.36194306123699E-02
 cg2d: Sum(rhs),rhsMax =   5.34398102040464E-03  1.36195387490324E-02
 cg2d: Sum(rhs),rhsMax =   5.34438477955978E-03  1.36196469039088E-02
 cg2d: Sum(rhs),rhsMax =   5.34478871386899E-03  1.36197550744489E-02
 cg2d: Sum(rhs),rhsMax =   5.34519303460990E-03  1.36198632623936E-02
 cg2d: Sum(rhs),rhsMax =   5.34559736382780E-03  1.36199714654825E-02
 cg2d: Sum(rhs),rhsMax =   5.34600205801158E-03  1.36200796866918E-02
 cg2d: Sum(rhs),rhsMax =   5.34640703315684E-03  1.36201879229327E-02
 cg2d: Sum(rhs),rhsMax =   5.34681215421284E-03  1.36202961763668E-02
 cg2d: Sum(rhs),rhsMax =   5.34721762037394E-03  1.36204044446014E-02
 cg2d: Sum(rhs),rhsMax =   5.34762317218198E-03  1.36205127297094E-02
 cg2d: Sum(rhs),rhsMax =   5.34802908331993E-03  1.36206210301420E-02
 cg2d: Sum(rhs),rhsMax =   5.34843514468446E-03  1.36207293468026E-02
 cg2d: Sum(rhs),rhsMax =   5.34884150377070E-03  1.36208376781229E-02
 cg2d: Sum(rhs),rhsMax =   5.34924777664202E-03  1.36209460256910E-02
 cg2d: Sum(rhs),rhsMax =   5.34965452987583E-03  1.36210543878149E-02
 cg2d: Sum(rhs),rhsMax =   5.35006120845341E-03  1.36211627661340E-02
 cg2d: Sum(rhs),rhsMax =   5.35046834585452E-03  1.36212711585252E-02
 cg2d: Sum(rhs),rhsMax =   5.35087567668562E-03  1.36213795666653E-02
 cg2d: Sum(rhs),rhsMax =   5.35128326461042E-03  1.36214879892589E-02
 cg2d: Sum(rhs),rhsMax =   5.35169100094461E-03  1.36215964271650E-02
 cg2d: Sum(rhs),rhsMax =   5.35209897729663E-03  1.36217048788955E-02
 cg2d: Sum(rhs),rhsMax =   5.35250705939150E-03  1.36218133459354E-02
 cg2d: Sum(rhs),rhsMax =   5.35291545467125E-03  1.36219218263141E-02
 cg2d: Sum(rhs),rhsMax =   5.35332360198690E-03  1.36220303222065E-02
 cg2d: Sum(rhs),rhsMax =   5.35373229672519E-03  1.36221388308488E-02
 cg2d: Sum(rhs),rhsMax =   5.35414121880388E-03  1.36222473543361E-02
 cg2d: Sum(rhs),rhsMax =   5.35455041647555E-03  1.36223558908445E-02
 cg2d: Sum(rhs),rhsMax =   5.35495958196566E-03  1.36224644420870E-02
 cg2d: Sum(rhs),rhsMax =   5.35536910525786E-03  1.36225730059781E-02
 cg2d: Sum(rhs),rhsMax =   5.35577823438833E-03  1.36226815842624E-02
 cg2d: Sum(rhs),rhsMax =   5.35618791335252E-03  1.36227901750019E-02
 cg2d: Sum(rhs),rhsMax =   5.35659786907343E-03  1.36228987807790E-02
 cg2d: Sum(rhs),rhsMax =   5.35700805497186E-03  1.36230073972908E-02
 cg2d: Sum(rhs),rhsMax =   5.35741824934165E-03  1.36231160288357E-02
 cg2d: Sum(rhs),rhsMax =   5.35782874658450E-03  1.36232246722532E-02
 cg2d: Sum(rhs),rhsMax =   5.35823939185522E-03  1.36233333286992E-02
 cg2d: Sum(rhs),rhsMax =   5.35865015321723E-03  1.36234419964592E-02
 cg2d: Sum(rhs),rhsMax =   5.35906115390760E-03  1.36235506785663E-02
 cg2d: Sum(rhs),rhsMax =   5.35947210904341E-03  1.36236593725996E-02
 cg2d: Sum(rhs),rhsMax =   5.35988329771460E-03  1.36237680783060E-02
 cg2d: Sum(rhs),rhsMax =   5.36029475365275E-03  1.36238767949687E-02
 cg2d: Sum(rhs),rhsMax =   5.36070638995664E-03  1.36239855257324E-02
 cg2d: Sum(rhs),rhsMax =   5.36111814618904E-03  1.36240942673124E-02
 cg2d: Sum(rhs),rhsMax =   5.36153002550926E-03  1.36242030215303E-02
 cg2d: Sum(rhs),rhsMax =   5.36194198231785E-03  1.36243117862655E-02
 cg2d: Sum(rhs),rhsMax =   5.36235419296691E-03  1.36244205630171E-02
 cg2d: Sum(rhs),rhsMax =   5.36276633143133E-03  1.36245293494271E-02
 cg2d: Sum(rhs),rhsMax =   5.36317878567442E-03  1.36246381495660E-02
 cg2d: Sum(rhs),rhsMax =   5.36359137328724E-03  1.36247469593350E-02
 cg2d: Sum(rhs),rhsMax =   5.36400411579271E-03  1.36248557809476E-02
 cg2d: Sum(rhs),rhsMax =   5.36441694439896E-03  1.36249646124698E-02
 cg2d: Sum(rhs),rhsMax =   5.36482988521258E-03  1.36250734552329E-02
 cg2d: Sum(rhs),rhsMax =   5.36524288715424E-03  1.36251823076750E-02
 cg2d: Sum(rhs),rhsMax =   5.36565610739741E-03  1.36252911712643E-02
(PID.TID 0000.0001)      cg2d_init_res =   1.21024491380173E-03
(PID.TID 0000.0001)      cg2d_iters(min,last) =      -1     353
(PID.TID 0000.0001)      cg2d_last_res =   9.33673100676855E-08
(PID.TID 0000.0001) // =======================================================
(PID.TID 0000.0001) // Begin MONITOR dynamic field statistics
(PID.TID 0000.0001) // =======================================================
(PID.TID 0000.0001) %MON time_tsnumber                =                 20520
(PID.TID 0000.0001) %MON time_secondsf                =   2.4624000000000E+07
(PID.TID 0000.0001) %MON dynstat_eta_max              =   1.4025544145537E-01
(PID.TID 0000.0001) %MON dynstat_eta_min              =  -3.6206567866234E-01
(PID.TID 0000.0001) %MON dynstat_eta_mean             =  -3.4793787010060E-07
(PID.TID 0000.0001) %MON dynstat_eta_sd               =   1.2467699674617E-01
(PID.TID 0000.0001) %MON dynstat_eta_del2             =   7.5165248515476E-07
(PID.TID 0000.0001) %MON dynstat_uvel_max             =   1.3561072904668E-01
(PID.TID 0000.0001) %MON dynstat_uvel_min             =  -1.3325983326892E-01
(PID.TID 0000.0001) %MON dynstat_uvel_mean            =   4.0332395303609E-08
(PID.TID 0000.0001) %MON dynstat_uvel_sd              =   5.2038329274926E-02
(PID.TID 0000.0001) %MON dynstat_uvel_del2            =   1.1172754240330E-06
(PID.TID 0000.0001) %MON dynstat_vvel_max             =   1.6737820719544E-01
(PID.TID 0000.0001) %MON dynstat_vvel_min             =  -1.2744484680759E-01
(PID.TID 0000.0001) %MON dynstat_vvel_mean            =  -1.1333881495701E-08
(PID.TID 0000.0001) %MON dynstat_vvel_sd              =   5.0211196213658E-02
(PID.TID 0000.0001) %MON dynstat_vvel_del2            =   1.3079185367732E-06
(PID.TID 0000.0001) %MON dynstat_wvel_max             =   2.6322120614350E-09
(PID.TID 0000.0001) %MON dynstat_wvel_min             =  -6.3501987745985E-09
(PID.TID 0000.0001) %MON dynstat_wvel_mean            =   1.1384323179881E-20
(PID.TID 0000.0001) %MON dynstat_wvel_sd              =   1.9143100625795E-09
(PID.TID 0000.0001) %MON dynstat_wvel_del2            =   2.1797913321996E-14
(PID.TID 0000.0001) %MON dynstat_theta_max            =   2.0000000000000E+01
(PID.TID 0000.0001) %MON dynstat_theta_min            =   2.0000000000000E+01
(PID.TID 0000.0001) %MON dynstat_theta_mean           =   1.9999999999999E+01
(PID.TID 0000.0001) %MON dynstat_theta_sd             =   1.1972645097557E-12
(PID.TID 0000.0001) %MON dynstat_theta_del2           =   0.0000000000000E+00
(PID.TID 0000.0001) %MON dynstat_salt_max             =   3.0000000000000E+01
(PID.TID 0000.0001) %MON dynstat_salt_min             =   3.0000000000000E+01
(PID.TID 0000.0001) %MON dynstat_salt_mean            =   2.9999999999998E+01
(PID.TID 0000.0001) %MON dynstat_salt_sd              =   2.1529444893531E-12
(PID.TID 0000.0001) %MON dynstat_salt_del2            =   0.0000000000000E+00
(PID.TID 0000.0001) %MON trAdv_CFL_u_max              =   3.2545964736457E-02
(PID.TID 0000.0001) %MON trAdv_CFL_v_max              =   4.0169853482201E-02
(PID.TID 0000.0001) %MON trAdv_CFL_w_max              =   6.6216333519631E-10
(PID.TID 0000.0001) %MON advcfl_uvel_max              =   3.2546574971204E-02
(PID.TID 0000.0001) %MON advcfl_vvel_max              =   4.0170769726905E-02
(PID.TID 0000.0001) %MON advcfl_wvel_max              =   3.0480954118073E-09
(PID.TID 0000.0001) %MON advcfl_W_hf_max              =   0.0000000000000E+00
(PID.TID 0000.0001) %MON pe_b_mean                    =   1.5904002725872E-05
(PID.TID 0000.0001) %MON ke_max                       =   1.4004736709009E-02
(PID.TID 0000.0001) %MON ke_mean                      =   2.6028067679974E-03
(PID.TID 0000.0001) %MON ke_vol                       =   7.2529629296391E+15
(PID.TID 0000.0001) %MON vort_r_min                   =  -4.4655878050596E-06
(PID.TID 0000.0001) %MON vort_r_max                   =   3.5686450275364E-06
(PID.TID 0000.0001) %MON vort_a_mean                  =   1.0615000000000E-04
(PID.TID 0000.0001) %MON vort_a_sd                    =   3.6478104067928E-06
(PID.TID 0000.0001) %MON vort_p_mean                  =   1.1210870169429E-04
(PID.TID 0000.0001) %MON vort_p_sd                    =   2.1072732190920E-05
(PID.TID 0000.0001) %MON surfExpan_theta_mean         =   2.2762479587114E-19
(PID.TID 0000.0001) %MON surfExpan_salt_mean          =   3.4143592573520E-19
(PID.TID 0000.0001) // =======================================================
(PID.TID 0000.0001) // End MONITOR dynamic field statistics
(PID.TID 0000.0001) // =======================================================
 cg2d: Sum(rhs),rhsMax =   5.36606948336085E-03  1.36254000440304E-02
 cg2d: Sum(rhs),rhsMax =   5.36648306619266E-03  1.36255089285193E-02
 cg2d: Sum(rhs),rhsMax =   5.36693570965887E-03  1.36256178129816E-02
 cg2d: Sum(rhs),rhsMax =   5.36738822040557E-03  1.36257267179321E-02
 cg2d: Sum(rhs),rhsMax =   5.36784124450901E-03  1.36258356298895E-02
 cg2d: Sum(rhs),rhsMax =   5.36829426876750E-03  1.36259445531275E-02
 cg2d: Sum(rhs),rhsMax =   5.36874706341545E-03  1.36260534856008E-02
 cg2d: Sum(rhs),rhsMax =   5.36920036098554E-03  1.36261624281934E-02
 cg2d: Sum(rhs),rhsMax =   5.36965374047275E-03  1.36262713766776E-02
 cg2d: Sum(rhs),rhsMax =   5.37010711569006E-03  1.36263803378744E-02
 cg2d: Sum(rhs),rhsMax =   5.37056071246938E-03  1.36264893053986E-02
 cg2d: Sum(rhs),rhsMax =   5.37101444491515E-03  1.36265982850557E-02
 cg2d: Sum(rhs),rhsMax =   5.37146835834044E-03  1.36267072701256E-02
 cg2d: Sum(rhs),rhsMax =   5.37192234818054E-03  1.36268162662185E-02
 cg2d: Sum(rhs),rhsMax =   5.37237640963363E-03  1.36269252683058E-02
 cg2d: Sum(rhs),rhsMax =   5.37283053677830E-03  1.36270342804564E-02
 cg2d: Sum(rhs),rhsMax =   5.37328428622003E-03  1.36271433007221E-02
 cg2d: Sum(rhs),rhsMax =   5.37373833489826E-03  1.36272523272533E-02
 cg2d: Sum(rhs),rhsMax =   5.37419268325687E-03  1.36273613604781E-02
 cg2d: Sum(rhs),rhsMax =   5.37464720382995E-03  1.36274704030308E-02
 cg2d: Sum(rhs),rhsMax =   5.37510158719252E-03  1.36275794540048E-02
 cg2d: Sum(rhs),rhsMax =   5.37555624858164E-03  1.36276885119494E-02
 cg2d: Sum(rhs),rhsMax =   5.37601092989257E-03  1.36277975766040E-02
 cg2d: Sum(rhs),rhsMax =   5.37646568074163E-03  1.36279066483915E-02
 cg2d: Sum(rhs),rhsMax =   5.37692058083487E-03  1.36280157284254E-02
 cg2d: Sum(rhs),rhsMax =   5.37737547277036E-03  1.36281248140785E-02
 cg2d: Sum(rhs),rhsMax =   5.37783044102995E-03  1.36282339071777E-02
 cg2d: Sum(rhs),rhsMax =   5.37828542691209E-03  1.36283430050104E-02
 cg2d: Sum(rhs),rhsMax =   5.37874050704327E-03  1.36284521102671E-02
 cg2d: Sum(rhs),rhsMax =   5.37919560741984E-03  1.36285612216720E-02
 cg2d: Sum(rhs),rhsMax =   5.37965081326482E-03  1.36286703400697E-02
 cg2d: Sum(rhs),rhsMax =   5.38010599433294E-03  1.36287794635783E-02
 cg2d: Sum(rhs),rhsMax =   5.38056143409004E-03  1.36288885939740E-02
 cg2d: Sum(rhs),rhsMax =   5.38101675655763E-03  1.36289977280166E-02
 cg2d: Sum(rhs),rhsMax =   5.38147222086421E-03  1.36291068697984E-02
 cg2d: Sum(rhs),rhsMax =   5.38192772875038E-03  1.36292160151199E-02
 cg2d: Sum(rhs),rhsMax =   5.38238323476541E-03  1.36293251666740E-02
 cg2d: Sum(rhs),rhsMax =   5.38283873380599E-03  1.36294343231804E-02
 cg2d: Sum(rhs),rhsMax =   5.38329442003237E-03  1.36295434853025E-02
 cg2d: Sum(rhs),rhsMax =   5.38375012734556E-03  1.36296526505159E-02
 cg2d: Sum(rhs),rhsMax =   5.38420587512374E-03  1.36297618228285E-02
 cg2d: Sum(rhs),rhsMax =   5.38466162330555E-03  1.36298709967779E-02
 cg2d: Sum(rhs),rhsMax =   5.38511738100945E-03  1.36299801770755E-02
 cg2d: Sum(rhs),rhsMax =   5.38557317446201E-03  1.36300893609902E-02
 cg2d: Sum(rhs),rhsMax =   5.38602903109335E-03  1.36301985497957E-02
 cg2d: Sum(rhs),rhsMax =   5.38648488600755E-03  1.36303077409410E-02
 cg2d: Sum(rhs),rhsMax =   5.38694075601878E-03  1.36304169384874E-02
 cg2d: Sum(rhs),rhsMax =   5.38739666411906E-03  1.36305261369963E-02
 cg2d: Sum(rhs),rhsMax =   5.38785258399665E-03  1.36306353409172E-02
 cg2d: Sum(rhs),rhsMax =   5.38830855712861E-03  1.36307445461018E-02
 cg2d: Sum(rhs),rhsMax =   5.38876456561796E-03  1.36308537570613E-02
 cg2d: Sum(rhs),rhsMax =   5.38922059071714E-03  1.36309629682233E-02
 cg2d: Sum(rhs),rhsMax =   5.38967618020513E-03  1.36310721850029E-02
 cg2d: Sum(rhs),rhsMax =   5.39013234266511E-03  1.36311814035586E-02
 cg2d: Sum(rhs),rhsMax =   5.39058832957543E-03  1.36312906233280E-02
 cg2d: Sum(rhs),rhsMax =   5.39104436434578E-03  1.36313998470302E-02
 cg2d: Sum(rhs),rhsMax =   5.39150049375889E-03  1.36315090731140E-02
 cg2d: Sum(rhs),rhsMax =   5.39195649225130E-03  1.36316183000162E-02
 cg2d: Sum(rhs),rhsMax =   5.39241273616160E-03  1.36317275297214E-02
 cg2d: Sum(rhs),rhsMax =   5.39286858312888E-03  1.36318367631248E-02
 cg2d: Sum(rhs),rhsMax =   5.39332460221026E-03  1.36319459959127E-02
 cg2d: Sum(rhs),rhsMax =   5.39378070947236E-03  1.36320552299295E-02
 cg2d: Sum(rhs),rhsMax =   5.39423686194312E-03  1.36321644651713E-02
 cg2d: Sum(rhs),rhsMax =   5.39469292210333E-03  1.36322737040329E-02
 cg2d: Sum(rhs),rhsMax =   5.39514895199317E-03  1.36323829431334E-02
 cg2d: Sum(rhs),rhsMax =   5.39560496648363E-03  1.36324921839305E-02
 cg2d: Sum(rhs),rhsMax =   5.39606096478262E-03  1.36326014234483E-02
 cg2d: Sum(rhs),rhsMax =   5.39651693682310E-03  1.36327106652555E-02
 cg2d: Sum(rhs),rhsMax =   5.39697296127885E-03  1.36328199066878E-02
 cg2d: Sum(rhs),rhsMax =   5.39742894760488E-03  1.36329291483354E-02
 cg2d: Sum(rhs),rhsMax =   5.39788502903319E-03  1.36330383897107E-02
 cg2d: Sum(rhs),rhsMax =   5.39834073370528E-03  1.36331476315329E-02
(PID.TID 0000.0001)      cg2d_init_res =   1.20789345019136E-03
(PID.TID 0000.0001)      cg2d_iters(min,last) =      -1     352
(PID.TID 0000.0001)      cg2d_last_res =   9.55253152195165E-08
(PID.TID 0000.0001) // =======================================================
(PID.TID 0000.0001) // Begin MONITOR dynamic field statistics
(PID.TID 0000.0001) // =======================================================
(PID.TID 0000.0001) %MON time_tsnumber                =                 20592
(PID.TID 0000.0001) %MON time_secondsf                =   2.4710400000000E+07
(PID.TID 0000.0001) %MON dynstat_eta_max              =   1.4024256434930E-01
(PID.TID 0000.0001) %MON dynstat_eta_min              =  -3.6255261341982E-01
(PID.TID 0000.0001) %MON dynstat_eta_mean             =  -3.5026177315151E-07
(PID.TID 0000.0001) %MON dynstat_eta_sd               =   1.2479066192974E-01
(PID.TID 0000.0001) %MON dynstat_eta_del2             =   7.5209744808241E-07
(PID.TID 0000.0001) %MON dynstat_uvel_max             =   1.3579756950384E-01
(PID.TID 0000.0001) %MON dynstat_uvel_min             =  -1.3339000511514E-01
(PID.TID 0000.0001) %MON dynstat_uvel_mean            =   3.9191698502381E-08
(PID.TID 0000.0001) %MON dynstat_uvel_sd              =   5.2085936557135E-02
(PID.TID 0000.0001) %MON dynstat_uvel_del2            =   1.1177996407706E-06
(PID.TID 0000.0001) %MON dynstat_vvel_max             =   1.6765058641228E-01
(PID.TID 0000.0001) %MON dynstat_vvel_min             =  -1.2761881954317E-01
(PID.TID 0000.0001) %MON dynstat_vvel_mean            =  -1.8223262344281E-08
(PID.TID 0000.0001) %MON dynstat_vvel_sd              =   5.0265551366036E-02
(PID.TID 0000.0001) %MON dynstat_vvel_del2            =   1.3065239553514E-06
(PID.TID 0000.0001) %MON dynstat_wvel_max             =   2.5833216999308E-09
(PID.TID 0000.0001) %MON dynstat_wvel_min             =  -6.4027849817649E-09
(PID.TID 0000.0001) %MON dynstat_wvel_mean            =  -5.8418197980790E-21
(PID.TID 0000.0001) %MON dynstat_wvel_sd              =   1.8922880338518E-09
(PID.TID 0000.0001) %MON dynstat_wvel_del2            =   2.1919077861972E-14
(PID.TID 0000.0001) %MON dynstat_theta_max            =   2.0000000000000E+01
(PID.TID 0000.0001) %MON dynstat_theta_min            =   2.0000000000000E+01
(PID.TID 0000.0001) %MON dynstat_theta_mean           =   1.9999999999999E+01
(PID.TID 0000.0001) %MON dynstat_theta_sd             =   1.1972645097557E-12
(PID.TID 0000.0001) %MON dynstat_theta_del2           =   0.0000000000000E+00
(PID.TID 0000.0001) %MON dynstat_salt_max             =   3.0000000000000E+01
(PID.TID 0000.0001) %MON dynstat_salt_min             =   3.0000000000000E+01
(PID.TID 0000.0001) %MON dynstat_salt_mean            =   2.9999999999998E+01
(PID.TID 0000.0001) %MON dynstat_salt_sd              =   2.1529444893531E-12
(PID.TID 0000.0001) %MON dynstat_salt_del2            =   0.0000000000000E+00
(PID.TID 0000.0001) %MON trAdv_CFL_u_max              =   3.2590782630378E-02
(PID.TID 0000.0001) %MON trAdv_CFL_v_max              =   4.0235240759179E-02
(PID.TID 0000.0001) %MON trAdv_CFL_w_max              =   6.6782961665760E-10
(PID.TID 0000.0001) %MON advcfl_uvel_max              =   3.2591416680922E-02
(PID.TID 0000.0001) %MON advcfl_vvel_max              =   4.0236140738946E-02
(PID.TID 0000.0001) %MON advcfl_wvel_max              =   3.0733367912471E-09
(PID.TID 0000.0001) %MON advcfl_W_hf_max              =   0.0000000000000E+00
(PID.TID 0000.0001) %MON pe_b_mean                    =   1.5933014580030E-05
(PID.TID 0000.0001) %MON ke_max                       =   1.4050076769861E-02
(PID.TID 0000.0001) %MON ke_mean                      =   2.6079925702925E-03
(PID.TID 0000.0001) %MON ke_vol                       =   7.2529629296391E+15
(PID.TID 0000.0001) %MON vort_r_min                   =  -4.4680401976233E-06
(PID.TID 0000.0001) %MON vort_r_max                   =   3.5637471777764E-06
(PID.TID 0000.0001) %MON vort_a_mean                  =   1.0615000000000E-04
(PID.TID 0000.0001) %MON vort_a_sd                    =   3.6479153836403E-06
(PID.TID 0000.0001) %MON vort_p_mean                  =   1.1210870169429E-04
(PID.TID 0000.0001) %MON vort_p_sd                    =   2.1072778763149E-05
(PID.TID 0000.0001) %MON surfExpan_theta_mean         =  -1.1692946564732E-19
(PID.TID 0000.0001) %MON surfExpan_salt_mean          =  -1.7539455071307E-19
(PID.TID 0000.0001) // =======================================================
(PID.TID 0000.0001) // End MONITOR dynamic field statistics
(PID.TID 0000.0001) // =======================================================
 cg2d: Sum(rhs),rhsMax =   5.39879673466418E-03  1.36332568740063E-02
 cg2d: Sum(rhs),rhsMax =   5.39925254310491E-03  1.36333661166066E-02
 cg2d: Sum(rhs),rhsMax =   5.39970843558828E-03  1.36334753579293E-02
 cg2d: Sum(rhs),rhsMax =   5.40016433656361E-03  1.36335845987881E-02
 cg2d: Sum(rhs),rhsMax =   5.40062011891781E-03  1.36336938392885E-02
 cg2d: Sum(rhs),rhsMax =   5.40107592124073E-03  1.36338030783272E-02
 cg2d: Sum(rhs),rhsMax =   5.40153165114191E-03  1.36339123171305E-02
 cg2d: Sum(rhs),rhsMax =   5.40198712846730E-03  1.36340215547615E-02
 cg2d: Sum(rhs),rhsMax =   5.40244285236512E-03  1.36341307890197E-02
 cg2d: Sum(rhs),rhsMax =   5.40289849505332E-03  1.36342400234735E-02
 cg2d: Sum(rhs),rhsMax =   5.40335413145128E-03  1.36343492561091E-02
 cg2d: Sum(rhs),rhsMax =   5.40380976230459E-03  1.36344584870587E-02
 cg2d: Sum(rhs),rhsMax =   5.40426481964845E-03  1.36345677175761E-02
 cg2d: Sum(rhs),rhsMax =   5.40472023341125E-03  1.36346769437838E-02
 cg2d: Sum(rhs),rhsMax =   5.40517559433632E-03  1.36347861678826E-02
 cg2d: Sum(rhs),rhsMax =   5.40563100868827E-03  1.36348953887124E-02
 cg2d: Sum(rhs),rhsMax =   5.40608636405232E-03  1.36350046085322E-02
 cg2d: Sum(rhs),rhsMax =   5.40654141572393E-03  1.36351138240496E-02
 cg2d: Sum(rhs),rhsMax =   5.40699657816775E-03  1.36352230391654E-02
 cg2d: Sum(rhs),rhsMax =   5.40745177630584E-03  1.36353322498480E-02
 cg2d: Sum(rhs),rhsMax =   5.40790677728705E-03  1.36354414581069E-02
 cg2d: Sum(rhs),rhsMax =   5.40836176852036E-03  1.36355506624051E-02
 cg2d: Sum(rhs),rhsMax =   5.40881673609410E-03  1.36356598625771E-02
 cg2d: Sum(rhs),rhsMax =   5.40927135334189E-03  1.36357690586687E-02
 cg2d: Sum(rhs),rhsMax =   5.40972619901452E-03  1.36358782523993E-02
 cg2d: Sum(rhs),rhsMax =   5.41018092311325E-03  1.36359874421256E-02
 cg2d: Sum(rhs),rhsMax =   5.41063564828005E-03  1.36360966269568E-02
 cg2d: Sum(rhs),rhsMax =   5.41108995909164E-03  1.36362058085512E-02
 cg2d: Sum(rhs),rhsMax =   5.41154445875870E-03  1.36363149845660E-02
 cg2d: Sum(rhs),rhsMax =   5.41199852038326E-03  1.36364241548817E-02
 cg2d: Sum(rhs),rhsMax =   5.41245286153325E-03  1.36365333218105E-02
 cg2d: Sum(rhs),rhsMax =   5.41290714578131E-03  1.36366424845796E-02
 cg2d: Sum(rhs),rhsMax =   5.41336126664312E-03  1.36367516404722E-02
 cg2d: Sum(rhs),rhsMax =   5.41381512989955E-03  1.36368607932455E-02
 cg2d: Sum(rhs),rhsMax =   5.41426897514256E-03  1.36369699389738E-02
 cg2d: Sum(rhs),rhsMax =   5.41472287289445E-03  1.36370790792637E-02
 cg2d: Sum(rhs),rhsMax =   5.41517656724768E-03  1.36371882133468E-02
 cg2d: Sum(rhs),rhsMax =   5.41563015162488E-03  1.36372973433555E-02
 cg2d: Sum(rhs),rhsMax =   5.41608348407567E-03  1.36374064661515E-02
 cg2d: Sum(rhs),rhsMax =   5.41653695841313E-03  1.36375155819426E-02
 cg2d: Sum(rhs),rhsMax =   5.41699014934712E-03  1.36376246928911E-02
 cg2d: Sum(rhs),rhsMax =   5.41744333656581E-03  1.36377337958780E-02
 cg2d: Sum(rhs),rhsMax =   5.41794081884174E-03  1.36378428923500E-02
 cg2d: Sum(rhs),rhsMax =   5.41843801231481E-03  1.36379519837772E-02
 cg2d: Sum(rhs),rhsMax =   5.41893533864793E-03  1.36380610664798E-02
 cg2d: Sum(rhs),rhsMax =   5.41943238929360E-03  1.36381701414673E-02
 cg2d: Sum(rhs),rhsMax =   5.41992944138568E-03  1.36382792101220E-02
 cg2d: Sum(rhs),rhsMax =   5.42042609066801E-03  1.36383882703945E-02
 cg2d: Sum(rhs),rhsMax =   5.42092279885044E-03  1.36384973244061E-02
 cg2d: Sum(rhs),rhsMax =   5.42141885251337E-03  1.36386063692173E-02
 cg2d: Sum(rhs),rhsMax =   5.42191509818968E-03  1.36387154080505E-02
 cg2d: Sum(rhs),rhsMax =   5.42241113478919E-03  1.36388244384919E-02
 cg2d: Sum(rhs),rhsMax =   5.42290710373043E-03  1.36389334596982E-02
 cg2d: Sum(rhs),rhsMax =   5.42340291809949E-03  1.36390424727406E-02
 cg2d: Sum(rhs),rhsMax =   5.42389851954366E-03  1.36391514762168E-02
 cg2d: Sum(rhs),rhsMax =   5.42439390215855E-03  1.36392604724886E-02
 cg2d: Sum(rhs),rhsMax =   5.42488877483590E-03  1.36393694578694E-02
 cg2d: Sum(rhs),rhsMax =   5.42538373187838E-03  1.36394784332992E-02
 cg2d: Sum(rhs),rhsMax =   5.42587853809467E-03  1.36395873999127E-02
 cg2d: Sum(rhs),rhsMax =   5.42637297121687E-03  1.36396963599313E-02
 cg2d: Sum(rhs),rhsMax =   5.42686744823481E-03  1.36398053087890E-02
 cg2d: Sum(rhs),rhsMax =   5.42736151903124E-03  1.36399142492265E-02
 cg2d: Sum(rhs),rhsMax =   5.42785552719300E-03  1.36400231777958E-02
 cg2d: Sum(rhs),rhsMax =   5.42834928540612E-03  1.36401320974427E-02
 cg2d: Sum(rhs),rhsMax =   5.42884289044966E-03  1.36402410050353E-02
 cg2d: Sum(rhs),rhsMax =   5.42933614346532E-03  1.36403499037014E-02
 cg2d: Sum(rhs),rhsMax =   5.42982932617316E-03  1.36404587906264E-02
 cg2d: Sum(rhs),rhsMax =   5.43032158419404E-03  1.36405676682388E-02
 cg2d: Sum(rhs),rhsMax =   5.43081415569931E-03  1.36406765342696E-02
 cg2d: Sum(rhs),rhsMax =   5.43130645645714E-03  1.36407853884305E-02
 cg2d: Sum(rhs),rhsMax =   5.43179869137201E-03  1.36408942314995E-02
 cg2d: Sum(rhs),rhsMax =   5.43229055010219E-03  1.36410030636514E-02
(PID.TID 0000.0001)      cg2d_init_res =   1.20382234878003E-03
(PID.TID 0000.0001)      cg2d_iters(min,last) =      -1     351
(PID.TID 0000.0001)      cg2d_last_res =   9.69111403910041E-08
(PID.TID 0000.0001) // =======================================================
(PID.TID 0000.0001) // Begin MONITOR dynamic field statistics
(PID.TID 0000.0001) // =======================================================
(PID.TID 0000.0001) %MON time_tsnumber                =                 20664
(PID.TID 0000.0001) %MON time_secondsf                =   2.4796800000000E+07
(PID.TID 0000.0001) %MON dynstat_eta_max              =   1.4021429184115E-01
(PID.TID 0000.0001) %MON dynstat_eta_min              =  -3.6303955540709E-01
(PID.TID 0000.0001) %MON dynstat_eta_mean             =  -3.5266975583648E-07
(PID.TID 0000.0001) %MON dynstat_eta_sd               =   1.2490490293168E-01
(PID.TID 0000.0001) %MON dynstat_eta_del2             =   7.5253507002262E-07
(PID.TID 0000.0001) %MON dynstat_uvel_max             =   1.3599058886486E-01
(PID.TID 0000.0001) %MON dynstat_uvel_min             =  -1.3352136939770E-01
(PID.TID 0000.0001) %MON dynstat_uvel_mean            =   3.6386513339934E-08
(PID.TID 0000.0001) %MON dynstat_uvel_sd              =   5.2135941710875E-02
(PID.TID 0000.0001) %MON dynstat_uvel_del2            =   1.1183667839757E-06
(PID.TID 0000.0001) %MON dynstat_vvel_max             =   1.6791823622426E-01
(PID.TID 0000.0001) %MON dynstat_vvel_min             =  -1.2777767831066E-01
(PID.TID 0000.0001) %MON dynstat_vvel_mean            =  -2.4768263230090E-08
(PID.TID 0000.0001) %MON dynstat_vvel_sd              =   5.0316857341973E-02
(PID.TID 0000.0001) %MON dynstat_vvel_del2            =   1.3051785346235E-06
(PID.TID 0000.0001) %MON dynstat_wvel_max             =   3.0059784732293E-09
(PID.TID 0000.0001) %MON dynstat_wvel_min             =  -6.4609163114801E-09
(PID.TID 0000.0001) %MON dynstat_wvel_mean            =   3.4506107513407E-21
(PID.TID 0000.0001) %MON dynstat_wvel_sd              =   1.8699881098902E-09
(PID.TID 0000.0001) %MON dynstat_wvel_del2            =   2.1913048091145E-14
(PID.TID 0000.0001) %MON dynstat_theta_max            =   2.0000000000000E+01
(PID.TID 0000.0001) %MON dynstat_theta_min            =   2.0000000000000E+01
(PID.TID 0000.0001) %MON dynstat_theta_mean           =   1.9999999999999E+01
(PID.TID 0000.0001) %MON dynstat_theta_sd             =   1.1972645097557E-12
(PID.TID 0000.0001) %MON dynstat_theta_del2           =   0.0000000000000E+00
(PID.TID 0000.0001) %MON dynstat_salt_max             =   3.0000000000000E+01
(PID.TID 0000.0001) %MON dynstat_salt_min             =   3.0000000000000E+01
(PID.TID 0000.0001) %MON dynstat_salt_mean            =   2.9999999999998E+01
(PID.TID 0000.0001) %MON dynstat_salt_sd              =   2.1529444893531E-12
(PID.TID 0000.0001) %MON dynstat_salt_del2            =   0.0000000000000E+00
(PID.TID 0000.0001) %MON trAdv_CFL_u_max              =   3.2637090011537E-02
(PID.TID 0000.0001) %MON trAdv_CFL_v_max              =   4.0299491914367E-02
(PID.TID 0000.0001) %MON trAdv_CFL_w_max              =   7.7775034878474E-10
(PID.TID 0000.0001) %MON advcfl_uvel_max              =   3.2637741327567E-02
(PID.TID 0000.0001) %MON advcfl_vvel_max              =   4.0300376693822E-02
(PID.TID 0000.0001) %MON advcfl_wvel_max              =   3.1012398295105E-09
(PID.TID 0000.0001) %MON advcfl_W_hf_max              =   0.0000000000000E+00
(PID.TID 0000.0001) %MON pe_b_mean                    =   1.5962200044460E-05
(PID.TID 0000.0001) %MON ke_max                       =   1.4094692760732E-02
(PID.TID 0000.0001) %MON ke_mean                      =   2.6131552807293E-03
(PID.TID 0000.0001) %MON ke_vol                       =   7.2529629296391E+15
(PID.TID 0000.0001) %MON vort_r_min                   =  -4.4705093579250E-06
(PID.TID 0000.0001) %MON vort_r_max                   =   3.5587084171961E-06
(PID.TID 0000.0001) %MON vort_a_mean                  =   1.0615000000000E-04
(PID.TID 0000.0001) %MON vort_a_sd                    =   3.6480196802547E-06
(PID.TID 0000.0001) %MON vort_p_mean                  =   1.1210870169429E-04
(PID.TID 0000.0001) %MON vort_p_sd                    =   2.1072821894765E-05
(PID.TID 0000.0001) %MON surfExpan_theta_mean         =   6.8917314771829E-20
(PID.TID 0000.0001) %MON surfExpan_salt_mean          =   1.0337221256055E-19
(PID.TID 0000.0001) // =======================================================
(PID.TID 0000.0001) // End MONITOR dynamic field statistics
(PID.TID 0000.0001) // =======================================================
 cg2d: Sum(rhs),rhsMax =   5.43278225842308E-03  1.36411118843959E-02
 cg2d: Sum(rhs),rhsMax =   5.43327333265656E-03  1.36412206944031E-02
 cg2d: Sum(rhs),rhsMax =   5.43376444597821E-03  1.36413294907436E-02
 cg2d: Sum(rhs),rhsMax =   5.43425533525103E-03  1.36414382761211E-02
 cg2d: Sum(rhs),rhsMax =   5.43474607780531E-03  1.36415470487285E-02
 cg2d: Sum(rhs),rhsMax =   5.43523627316661E-03  1.36416558093209E-02
 cg2d: Sum(rhs),rhsMax =   5.43572626394677E-03  1.36417645576478E-02
 cg2d: Sum(rhs),rhsMax =   5.43621612342799E-03  1.36418732930808E-02
 cg2d: Sum(rhs),rhsMax =   5.43670551774764E-03  1.36419820142123E-02
 cg2d: Sum(rhs),rhsMax =   5.43719483795387E-03  1.36420907234876E-02
 cg2d: Sum(rhs),rhsMax =   5.43768380261012E-03  1.36421994182163E-02
 cg2d: Sum(rhs),rhsMax =   5.43817255451454E-03  1.36423081016149E-02
 cg2d: Sum(rhs),rhsMax =   5.43866091789387E-03  1.36424167698707E-02
 cg2d: Sum(rhs),rhsMax =   5.43914906752188E-03  1.36425254263242E-02
 cg2d: Sum(rhs),rhsMax =   5.43963655722202E-03  1.36426340675676E-02
 cg2d: Sum(rhs),rhsMax =   5.44012405783583E-03  1.36427426954640E-02
 cg2d: Sum(rhs),rhsMax =   5.44061106882097E-03  1.36428513078524E-02
 cg2d: Sum(rhs),rhsMax =   5.44129934677813E-03  1.36429599077506E-02
 cg2d: Sum(rhs),rhsMax =   5.44198674268415E-03  1.36430684922387E-02
 cg2d: Sum(rhs),rhsMax =   5.44267357327745E-03  1.36431770624133E-02
 cg2d: Sum(rhs),rhsMax =   5.44335960721184E-03  1.36432856159404E-02
 cg2d: Sum(rhs),rhsMax =   5.44404502397049E-03  1.36433941559609E-02
 cg2d: Sum(rhs),rhsMax =   5.44472969265405E-03  1.36435026795469E-02
 cg2d: Sum(rhs),rhsMax =   5.44541367585773E-03  1.36436111891676E-02
 cg2d: Sum(rhs),rhsMax =   5.44609677588128E-03  1.36437196821769E-02
 cg2d: Sum(rhs),rhsMax =   5.44677928793694E-03  1.36438281605318E-02
 cg2d: Sum(rhs),rhsMax =   5.44750958913372E-03  1.36439366268013E-02
 cg2d: Sum(rhs),rhsMax =   5.44823879786960E-03  1.36440450731798E-02
 cg2d: Sum(rhs),rhsMax =   5.44896761472875E-03  1.36441535023740E-02
 cg2d: Sum(rhs),rhsMax =   5.44969546729013E-03  1.36442619155643E-02
 cg2d: Sum(rhs),rhsMax =   5.45042249247571E-03  1.36443703119902E-02
 cg2d: Sum(rhs),rhsMax =   5.45114859525477E-03  1.36444786922028E-02
 cg2d: Sum(rhs),rhsMax =   5.45187377888265E-03  1.36445870552935E-02
 cg2d: Sum(rhs),rhsMax =   5.45259797098764E-03  1.36446954016707E-02
 cg2d: Sum(rhs),rhsMax =   5.45332125730487E-03  1.36448037313989E-02
 cg2d: Sum(rhs),rhsMax =   5.45404341439714E-03  1.36449120425529E-02
 cg2d: Sum(rhs),rhsMax =   5.45476483207112E-03  1.36450203365698E-02
 cg2d: Sum(rhs),rhsMax =   5.45553278374303E-03  1.36451286080859E-02
 cg2d: Sum(rhs),rhsMax =   5.45629955030533E-03  1.36452368669534E-02
 cg2d: Sum(rhs),rhsMax =   5.45706549776952E-03  1.36453451079797E-02
 cg2d: Sum(rhs),rhsMax =   5.45783008203823E-03  1.36454533300802E-02
 cg2d: Sum(rhs),rhsMax =   5.45859374610192E-03  1.36455615341173E-02
 cg2d: Sum(rhs),rhsMax =   5.45935592930220E-03  1.36456697189641E-02
 cg2d: Sum(rhs),rhsMax =   5.46011719460669E-03  1.36457778863584E-02
 cg2d: Sum(rhs),rhsMax =   5.46087702773559E-03  1.36458860330542E-02
 cg2d: Sum(rhs),rhsMax =   5.46163592054181E-03  1.36459941627938E-02
 cg2d: Sum(rhs),rhsMax =   5.46239346110354E-03  1.36461022719178E-02
 cg2d: Sum(rhs),rhsMax =   5.46314980596776E-03  1.36462103630691E-02
 cg2d: Sum(rhs),rhsMax =   5.46390502213992E-03  1.36463184328750E-02
 cg2d: Sum(rhs),rhsMax =   5.46465834883000E-03  1.36464264851507E-02
 cg2d: Sum(rhs),rhsMax =   5.46541090676459E-03  1.36465345137242E-02
 cg2d: Sum(rhs),rhsMax =   5.46620981443412E-03  1.36466425326183E-02
 cg2d: Sum(rhs),rhsMax =   5.46700709397763E-03  1.36467505225235E-02
 cg2d: Sum(rhs),rhsMax =   5.46780320914425E-03  1.36468584936055E-02
 cg2d: Sum(rhs),rhsMax =   5.46859779685684E-03  1.36469664426737E-02
 cg2d: Sum(rhs),rhsMax =   5.46939092975275E-03  1.36470743721408E-02
 cg2d: Sum(rhs),rhsMax =   5.47018250281457E-03  1.36471822804243E-02
 cg2d: Sum(rhs),rhsMax =   5.47097245882275E-03  1.36472901682380E-02
 cg2d: Sum(rhs),rhsMax =   5.47176071359153E-03  1.36473980340416E-02
 cg2d: Sum(rhs),rhsMax =   5.47254762169329E-03  1.36475058791502E-02
 cg2d: Sum(rhs),rhsMax =   5.47333283414117E-03  1.36476137013025E-02
 cg2d: Sum(rhs),rhsMax =   5.47411650576402E-03  1.36477215022246E-02
 cg2d: Sum(rhs),rhsMax =   5.47489852838740E-03  1.36478292825445E-02
 cg2d: Sum(rhs),rhsMax =   5.47567896088918E-03  1.36479370399478E-02
 cg2d: Sum(rhs),rhsMax =   5.47645775571343E-03  1.36480447756247E-02
 cg2d: Sum(rhs),rhsMax =   5.47723476239598E-03  1.36481524881077E-02
 cg2d: Sum(rhs),rhsMax =   5.47801024704783E-03  1.36482601794863E-02
 cg2d: Sum(rhs),rhsMax =   5.47878396073376E-03  1.36483678463387E-02
 cg2d: Sum(rhs),rhsMax =   5.47955598402517E-03  1.36484754918355E-02
 cg2d: Sum(rhs),rhsMax =   5.48037298157186E-03  1.36485831057965E-02
 cg2d: Sum(rhs),rhsMax =   5.48118797058626E-03  1.36486907055533E-02
 cg2d: Sum(rhs),rhsMax =   5.48200121561188E-03  1.36487982797064E-02
(PID.TID 0000.0001)      cg2d_init_res =   1.19761286580064E-03
(PID.TID 0000.0001)      cg2d_iters(min,last) =      -1     343
(PID.TID 0000.0001)      cg2d_last_res =   9.91951583798937E-08
(PID.TID 0000.0001) // =======================================================
(PID.TID 0000.0001) // Begin MONITOR dynamic field statistics
(PID.TID 0000.0001) // =======================================================
(PID.TID 0000.0001) %MON time_tsnumber                =                 20736
(PID.TID 0000.0001) %MON time_secondsf                =   2.4883200000000E+07
(PID.TID 0000.0001) %MON dynstat_eta_max              =   1.4017638434939E-01
(PID.TID 0000.0001) %MON dynstat_eta_min              =  -3.6352766394007E-01
(PID.TID 0000.0001) %MON dynstat_eta_mean             =  -3.5612080929705E-07
(PID.TID 0000.0001) %MON dynstat_eta_sd               =   1.2501986224099E-01
(PID.TID 0000.0001) %MON dynstat_eta_del2             =   7.5296866157118E-07
(PID.TID 0000.0001) %MON dynstat_uvel_max             =   1.3618765351540E-01
(PID.TID 0000.0001) %MON dynstat_uvel_min             =  -1.3365399529995E-01
(PID.TID 0000.0001) %MON dynstat_uvel_mean            =   3.2113036220230E-08
(PID.TID 0000.0001) %MON dynstat_uvel_sd              =   5.2188030244841E-02
(PID.TID 0000.0001) %MON dynstat_uvel_del2            =   1.1189660251658E-06
(PID.TID 0000.0001) %MON dynstat_vvel_max             =   1.6818154394129E-01
(PID.TID 0000.0001) %MON dynstat_vvel_min             =  -1.2792020330336E-01
(PID.TID 0000.0001) %MON dynstat_vvel_mean            =  -3.0700162236705E-08
(PID.TID 0000.0001) %MON dynstat_vvel_sd              =   5.0365564100165E-02
(PID.TID 0000.0001) %MON dynstat_vvel_del2            =   1.3039375356843E-06
(PID.TID 0000.0001) %MON dynstat_wvel_max             =   3.3969733328559E-09
(PID.TID 0000.0001) %MON dynstat_wvel_min             =  -6.5216254396364E-09
(PID.TID 0000.0001) %MON dynstat_wvel_mean            =  -3.2798732806019E-21
(PID.TID 0000.0001) %MON dynstat_wvel_sd              =   1.8485432158529E-09
(PID.TID 0000.0001) %MON dynstat_wvel_del2            =   2.2088927163503E-14
(PID.TID 0000.0001) %MON dynstat_theta_max            =   2.0000000000000E+01
(PID.TID 0000.0001) %MON dynstat_theta_min            =   2.0000000000000E+01
(PID.TID 0000.0001) %MON dynstat_theta_mean           =   1.9999999999999E+01
(PID.TID 0000.0001) %MON dynstat_theta_sd             =   1.1972645097557E-12
(PID.TID 0000.0001) %MON dynstat_theta_del2           =   0.0000000000000E+00
(PID.TID 0000.0001) %MON dynstat_salt_max             =   3.0000000000000E+01
(PID.TID 0000.0001) %MON dynstat_salt_min             =   3.0000000000000E+01
(PID.TID 0000.0001) %MON dynstat_salt_mean            =   2.9999999999998E+01
(PID.TID 0000.0001) %MON dynstat_salt_sd              =   2.1529444893531E-12
(PID.TID 0000.0001) %MON dynstat_salt_del2            =   0.0000000000000E+00
(PID.TID 0000.0001) %MON trAdv_CFL_u_max              =   3.2684375866884E-02
(PID.TID 0000.0001) %MON trAdv_CFL_v_max              =   4.0362699469338E-02
(PID.TID 0000.0001) %MON trAdv_CFL_w_max              =   8.7772689845854E-10
(PID.TID 0000.0001) %MON advcfl_uvel_max              =   3.2685036843695E-02
(PID.TID 0000.0001) %MON advcfl_vvel_max              =   4.0363570545909E-02
(PID.TID 0000.0001) %MON advcfl_wvel_max              =   3.1303802110255E-09
(PID.TID 0000.0001) %MON advcfl_W_hf_max              =   0.0000000000000E+00
(PID.TID 0000.0001) %MON pe_b_mean                    =   1.5991595975195E-05
(PID.TID 0000.0001) %MON ke_max                       =   1.4138644515398E-02
(PID.TID 0000.0001) %MON ke_mean                      =   2.6183010116557E-03
(PID.TID 0000.0001) %MON ke_vol                       =   7.2529629296391E+15
(PID.TID 0000.0001) %MON vort_r_min                   =  -4.4729784799191E-06
(PID.TID 0000.0001) %MON vort_r_max                   =   3.5537631500185E-06
(PID.TID 0000.0001) %MON vort_a_mean                  =   1.0615000000000E-04
(PID.TID 0000.0001) %MON vort_a_sd                    =   3.6481239512254E-06
(PID.TID 0000.0001) %MON vort_p_mean                  =   1.1210870169429E-04
(PID.TID 0000.0001) %MON vort_p_sd                    =   2.1072862332061E-05
(PID.TID 0000.0001) %MON surfExpan_theta_mean         =  -6.5720403135626E-20
(PID.TID 0000.0001) %MON surfExpan_salt_mean          =  -9.8586616320052E-20
(PID.TID 0000.0001) // =======================================================
(PID.TID 0000.0001) // End MONITOR dynamic field statistics
(PID.TID 0000.0001) // =======================================================
 cg2d: Sum(rhs),rhsMax =   5.48281215005961E-03  1.36489058315295E-02
 cg2d: Sum(rhs),rhsMax =   5.48362131184980E-03  1.36490133585599E-02
 cg2d: Sum(rhs),rhsMax =   5.48442826201891E-03  1.36491208627799E-02
 cg2d: Sum(rhs),rhsMax =   5.48523328409020E-03  1.36492283425650E-02
 cg2d: Sum(rhs),rhsMax =   5.48603581560255E-03  1.36493357992210E-02
 cg2d: Sum(rhs),rhsMax =   5.48683652806154E-03  1.36494432299038E-02
 cg2d: Sum(rhs),rhsMax =   5.48763491449673E-03  1.36495506368965E-02
 cg2d: Sum(rhs),rhsMax =   5.48843130130506E-03  1.36496580185467E-02
 cg2d: Sum(rhs),rhsMax =   5.48922514910600E-03  1.36497653776446E-02
 cg2d: Sum(rhs),rhsMax =   5.49001706860822E-03  1.36498727093142E-02
 cg2d: Sum(rhs),rhsMax =   5.49085298365354E-03  1.36499800224710E-02
 cg2d: Sum(rhs),rhsMax =   5.49168614215108E-03  1.36500873046174E-02
 cg2d: Sum(rhs),rhsMax =   5.49251704835451E-03  1.36501945611700E-02
 cg2d: Sum(rhs),rhsMax =   5.49334542312189E-03  1.36503017909881E-02
 cg2d: Sum(rhs),rhsMax =   5.49417104149594E-03  1.36504089958534E-02
 cg2d: Sum(rhs),rhsMax =   5.49499416306296E-03  1.36505161740139E-02
 cg2d: Sum(rhs),rhsMax =   5.49581465008998E-03  1.36506233263316E-02
 cg2d: Sum(rhs),rhsMax =   5.49667971589787E-03  1.36507304461792E-02
 cg2d: Sum(rhs),rhsMax =   5.49754164556225E-03  1.36508375463355E-02
 cg2d: Sum(rhs),rhsMax =   5.49840083710119E-03  1.36509446185733E-02
 cg2d: Sum(rhs),rhsMax =   5.49925663769614E-03  1.36510516649752E-02
 cg2d: Sum(rhs),rhsMax =   5.50010962455444E-03  1.36511586831878E-02
 cg2d: Sum(rhs),rhsMax =   5.50095926503113E-03  1.36512656748354E-02
 cg2d: Sum(rhs),rhsMax =   5.50180601719838E-03  1.36513726385161E-02
 cg2d: Sum(rhs),rhsMax =   5.50264934848626E-03  1.36514795752022E-02
 cg2d: Sum(rhs),rhsMax =   5.50353721197230E-03  1.36515864851016E-02
 cg2d: Sum(rhs),rhsMax =   5.50442145707789E-03  1.36516933675220E-02
 cg2d: Sum(rhs),rhsMax =   5.50530227477251E-03  1.36518002190821E-02
 cg2d: Sum(rhs),rhsMax =   5.50617943193922E-03  1.36519070449847E-02
 cg2d: Sum(rhs),rhsMax =   5.50705289853549E-03  1.36520138400469E-02
 cg2d: Sum(rhs),rhsMax =   5.50792276087578E-03  1.36521206091214E-02
 cg2d: Sum(rhs),rhsMax =   5.50878840869751E-03  1.36522273464038E-02
 cg2d: Sum(rhs),rhsMax =   5.50965069602109E-03  1.36523340589677E-02
 cg2d: Sum(rhs),rhsMax =   5.51050896942104E-03  1.36524407390124E-02
 cg2d: Sum(rhs),rhsMax =   5.51141013381577E-03  1.36525473894565E-02
 cg2d: Sum(rhs),rhsMax =   5.51230726150752E-03  1.36526540122283E-02
 cg2d: Sum(rhs),rhsMax =   5.51320005192830E-03  1.36527606043361E-02
 cg2d: Sum(rhs),rhsMax =   5.51408846376773E-03  1.36528671694654E-02
 cg2d: Sum(rhs),rhsMax =   5.51497252756411E-03  1.36529737038614E-02
 cg2d: Sum(rhs),rhsMax =   5.51585214674251E-03  1.36530802068713E-02
 cg2d: Sum(rhs),rhsMax =   5.51672733231932E-03  1.36531866790530E-02
 cg2d: Sum(rhs),rhsMax =   5.51764416698690E-03  1.36532931202651E-02
 cg2d: Sum(rhs),rhsMax =   5.51855600777099E-03  1.36533995324735E-02
 cg2d: Sum(rhs),rhsMax =   5.51946299221347E-03  1.36535059151462E-02
 cg2d: Sum(rhs),rhsMax =   5.52036493395722E-03  1.36536122650960E-02
 cg2d: Sum(rhs),rhsMax =   5.52126174519457E-03  1.36537185854431E-02
 cg2d: Sum(rhs),rhsMax =   5.52215346870306E-03  1.36538248733943E-02
 cg2d: Sum(rhs),rhsMax =   5.52303992723506E-03  1.36539311309030E-02
 cg2d: Sum(rhs),rhsMax =   5.52396683430873E-03  1.36540373615646E-02
 cg2d: Sum(rhs),rhsMax =   5.52488808369185E-03  1.36541435566628E-02
 cg2d: Sum(rhs),rhsMax =   5.52580372679822E-03  1.36542497180558E-02
 cg2d: Sum(rhs),rhsMax =   5.52671312904051E-03  1.36543558490896E-02
 cg2d: Sum(rhs),rhsMax =   5.52761698318196E-03  1.36544619471994E-02
 cg2d: Sum(rhs),rhsMax =   5.52851469543152E-03  1.36545680129808E-02
 cg2d: Sum(rhs),rhsMax =   5.52940663066316E-03  1.36546740454860E-02
 cg2d: Sum(rhs),rhsMax =   5.53033630437835E-03  1.36547800379426E-02
 cg2d: Sum(rhs),rhsMax =   5.53125953120481E-03  1.36548860064778E-02
 cg2d: Sum(rhs),rhsMax =   5.53217632744415E-03  1.36549919402711E-02
 cg2d: Sum(rhs),rhsMax =   5.53308642106888E-03  1.36550978427121E-02
 cg2d: Sum(rhs),rhsMax =   5.53398964631465E-03  1.36552037101570E-02
 cg2d: Sum(rhs),rhsMax =   5.53492903755104E-03  1.36553095533889E-02
 cg2d: Sum(rhs),rhsMax =   5.53586118988629E-03  1.36554153546431E-02
 cg2d: Sum(rhs),rhsMax =   5.53678601334460E-03  1.36555211216991E-02
 cg2d: Sum(rhs),rhsMax =   5.53774599079825E-03  1.36556268487881E-02
 cg2d: Sum(rhs),rhsMax =   5.53869770090316E-03  1.36557325479376E-02
 cg2d: Sum(rhs),rhsMax =   5.53964166800042E-03  1.36558382125802E-02
 cg2d: Sum(rhs),rhsMax =   5.54057737692478E-03  1.36559438422321E-02
 cg2d: Sum(rhs),rhsMax =   5.54154663479983E-03  1.36560494450578E-02
 cg2d: Sum(rhs),rhsMax =   5.54250710231226E-03  1.36561550082788E-02
 cg2d: Sum(rhs),rhsMax =   5.54350022505472E-03  1.36562605277035E-02
 cg2d: Sum(rhs),rhsMax =   5.54448371857067E-03  1.36563660200125E-02
 cg2d: Sum(rhs),rhsMax =   5.54549917390988E-03  1.36564714777755E-02
(PID.TID 0000.0001)      cg2d_init_res =   1.18909717829322E-03
(PID.TID 0000.0001)      cg2d_iters(min,last) =      -1     331
(PID.TID 0000.0001)      cg2d_last_res =   9.89706155889523E-08
(PID.TID 0000.0001) // =======================================================
(PID.TID 0000.0001) // Begin MONITOR dynamic field statistics
(PID.TID 0000.0001) // =======================================================
(PID.TID 0000.0001) %MON time_tsnumber                =                 20808
(PID.TID 0000.0001) %MON time_secondsf                =   2.4969600000000E+07
(PID.TID 0000.0001) %MON dynstat_eta_max              =   1.4013466163875E-01
(PID.TID 0000.0001) %MON dynstat_eta_min              =  -3.6401790066823E-01
(PID.TID 0000.0001) %MON dynstat_eta_mean             =  -3.6046025056330E-07
(PID.TID 0000.0001) %MON dynstat_eta_sd               =   1.2513563221886E-01
(PID.TID 0000.0001) %MON dynstat_eta_del2             =   7.5340126706097E-07
(PID.TID 0000.0001) %MON dynstat_uvel_max             =   1.3638636541848E-01
(PID.TID 0000.0001) %MON dynstat_uvel_min             =  -1.3378788072352E-01
(PID.TID 0000.0001) %MON dynstat_uvel_mean            =   2.6626045846774E-08
(PID.TID 0000.0001) %MON dynstat_uvel_sd              =   5.2241791047545E-02
(PID.TID 0000.0001) %MON dynstat_uvel_del2            =   1.1195848724758E-06
(PID.TID 0000.0001) %MON dynstat_vvel_max             =   1.6844101301346E-01
(PID.TID 0000.0001) %MON dynstat_vvel_min             =  -1.2804818207219E-01
(PID.TID 0000.0001) %MON dynstat_vvel_mean            =  -3.5790480819909E-08
(PID.TID 0000.0001) %MON dynstat_vvel_sd              =   5.0412208029136E-02
(PID.TID 0000.0001) %MON dynstat_vvel_del2            =   1.3028499638920E-06
(PID.TID 0000.0001) %MON dynstat_wvel_max             =   3.7465075659566E-09
(PID.TID 0000.0001) %MON dynstat_wvel_min             =  -6.5738321747631E-09
(PID.TID 0000.0001) %MON dynstat_wvel_mean            =   1.2055950620465E-20
(PID.TID 0000.0001) %MON dynstat_wvel_sd              =   1.8289823751880E-09
(PID.TID 0000.0001) %MON dynstat_wvel_del2            =   2.1686148873084E-14
(PID.TID 0000.0001) %MON dynstat_theta_max            =   2.0000000000000E+01
(PID.TID 0000.0001) %MON dynstat_theta_min            =   2.0000000000000E+01
(PID.TID 0000.0001) %MON dynstat_theta_mean           =   1.9999999999999E+01
(PID.TID 0000.0001) %MON dynstat_theta_sd             =   1.1972645097557E-12
(PID.TID 0000.0001) %MON dynstat_theta_del2           =   0.0000000000000E+00
(PID.TID 0000.0001) %MON dynstat_salt_max             =   3.0000000000000E+01
(PID.TID 0000.0001) %MON dynstat_salt_min             =   3.0000000000000E+01
(PID.TID 0000.0001) %MON dynstat_salt_mean            =   2.9999999999998E+01
(PID.TID 0000.0001) %MON dynstat_salt_sd              =   2.1529444893531E-12
(PID.TID 0000.0001) %MON dynstat_salt_del2            =   0.0000000000000E+00
(PID.TID 0000.0001) %MON trAdv_CFL_u_max              =   3.2732065374164E-02
(PID.TID 0000.0001) %MON trAdv_CFL_v_max              =   4.0424983912120E-02
(PID.TID 0000.0001) %MON trAdv_CFL_w_max              =   9.6781075749555E-10
(PID.TID 0000.0001) %MON advcfl_uvel_max              =   3.2732727700434E-02
(PID.TID 0000.0001) %MON advcfl_vvel_max              =   4.0425843123232E-02
(PID.TID 0000.0001) %MON advcfl_wvel_max              =   3.1554394438863E-09
(PID.TID 0000.0001) %MON advcfl_W_hf_max              =   0.0000000000000E+00
(PID.TID 0000.0001) %MON pe_b_mean                    =   1.6021226529326E-05
(PID.TID 0000.0001) %MON ke_max                       =   1.4182012471656E-02
(PID.TID 0000.0001) %MON ke_mean                      =   2.6234352471373E-03
(PID.TID 0000.0001) %MON ke_vol                       =   7.2529629296391E+15
(PID.TID 0000.0001) %MON vort_r_min                   =  -4.4754289169421E-06
(PID.TID 0000.0001) %MON vort_r_max                   =   3.5491297821599E-06
(PID.TID 0000.0001) %MON vort_a_mean                  =   1.0615000000000E-04
(PID.TID 0000.0001) %MON vort_a_sd                    =   3.6482287584337E-06
(PID.TID 0000.0001) %MON vort_p_mean                  =   1.1210870169429E-04
(PID.TID 0000.0001) %MON vort_p_sd                    =   2.1072900897927E-05
(PID.TID 0000.0001) %MON surfExpan_theta_mean         =   2.4107816572193E-19
(PID.TID 0000.0001) %MON surfExpan_salt_mean          =   3.6162131110829E-19
(PID.TID 0000.0001) // =======================================================
(PID.TID 0000.0001) // End MONITOR dynamic field statistics
(PID.TID 0000.0001) // =======================================================
 cg2d: Sum(rhs),rhsMax =   5.54650461769144E-03  1.36565768987361E-02
 cg2d: Sum(rhs),rhsMax =   5.54749989971958E-03  1.36566822826513E-02
 cg2d: Sum(rhs),rhsMax =   5.54848480165644E-03  1.36567876315502E-02
 cg2d: Sum(rhs),rhsMax =   5.54949979156904E-03  1.36568929438686E-02
 cg2d: Sum(rhs),rhsMax =   5.55050366752950E-03  1.36569982220538E-02
 cg2d: Sum(rhs),rhsMax =   5.55149671837966E-03  1.36571034612358E-02
 cg2d: Sum(rhs),rhsMax =   5.55247846744933E-03  1.36572086665873E-02
 cg2d: Sum(rhs),rhsMax =   5.55344922792829E-03  1.36573138328159E-02
 cg2d: Sum(rhs),rhsMax =   5.55444686781318E-03  1.36574189586813E-02
 cg2d: Sum(rhs),rhsMax =   5.55543311776415E-03  1.36575240537458E-02
 cg2d: Sum(rhs),rhsMax =   5.55640752684135E-03  1.36576291101923E-02
 cg2d: Sum(rhs),rhsMax =   5.55740806806098E-03  1.36577341360487E-02
 cg2d: Sum(rhs),rhsMax =   5.55839601502794E-03  1.36578391186021E-02
 cg2d: Sum(rhs),rhsMax =   5.55937146319414E-03  1.36579440627641E-02
 cg2d: Sum(rhs),rhsMax =   5.56033409644677E-03  1.36580489697374E-02
 cg2d: Sum(rhs),rhsMax =   5.56128402125886E-03  1.36581538386331E-02
 cg2d: Sum(rhs),rhsMax =   5.56225718916855E-03  1.36582586628443E-02
 cg2d: Sum(rhs),rhsMax =   5.56321701804057E-03  1.36583634544966E-02
 cg2d: Sum(rhs),rhsMax =   5.56416373482158E-03  1.36584682088345E-02
 cg2d: Sum(rhs),rhsMax =   5.56513164250538E-03  1.36585729342493E-02
 cg2d: Sum(rhs),rhsMax =   5.56612054675137E-03  1.36586776029281E-02
 cg2d: Sum(rhs),rhsMax =   5.56709503430857E-03  1.36587822409342E-02
 cg2d: Sum(rhs),rhsMax =   5.56808933160375E-03  1.36588868474465E-02
 cg2d: Sum(rhs),rhsMax =   5.56910234361690E-03  1.36589914041935E-02
 cg2d: Sum(rhs),rhsMax =   5.57009969611727E-03  1.36590959263648E-02
 cg2d: Sum(rhs),rhsMax =   5.57108154733776E-03  1.36592004065043E-02
 cg2d: Sum(rhs),rhsMax =   5.57208085942679E-03  1.36593048458683E-02
 cg2d: Sum(rhs),rhsMax =   5.57306410733817E-03  1.36594092490360E-02
 cg2d: Sum(rhs),rhsMax =   5.57403121452883E-03  1.36595136103953E-02
 cg2d: Sum(rhs),rhsMax =   5.57498205574276E-03  1.36596179331192E-02
 cg2d: Sum(rhs),rhsMax =   5.57591666853131E-03  1.36597222140424E-02
 cg2d: Sum(rhs),rhsMax =   5.57683505270994E-03  1.36598264559539E-02
 cg2d: Sum(rhs),rhsMax =   5.57773632493110E-03  1.36599323790542E-02
 cg2d: Sum(rhs),rhsMax =   5.57864691979170E-03  1.36600526214841E-02
 cg2d: Sum(rhs),rhsMax =   5.57954090761956E-03  1.36601728192678E-02
 cg2d: Sum(rhs),rhsMax =   5.58041831565999E-03  1.36602929779758E-02
 cg2d: Sum(rhs),rhsMax =   5.58127901204660E-03  1.36604130961967E-02
 cg2d: Sum(rhs),rhsMax =   5.58212313319860E-03  1.36605331743878E-02
 cg2d: Sum(rhs),rhsMax =   5.58295062771546E-03  1.36606532120044E-02
 cg2d: Sum(rhs),rhsMax =   5.58376157921316E-03  1.36607732086064E-02
 cg2d: Sum(rhs),rhsMax =   5.58455595518324E-03  1.36608931647037E-02
 cg2d: Sum(rhs),rhsMax =   5.58533384938407E-03  1.36610130795148E-02
 cg2d: Sum(rhs),rhsMax =   5.58612436298751E-03  1.36611329455333E-02
 cg2d: Sum(rhs),rhsMax =   5.58689796976243E-03  1.36612527779287E-02
 cg2d: Sum(rhs),rhsMax =   5.58765489472577E-03  1.36613725699762E-02
 cg2d: Sum(rhs),rhsMax =   5.58839525561789E-03  1.36614923196368E-02
 cg2d: Sum(rhs),rhsMax =   5.58911905451947E-03  1.36616120281616E-02
 cg2d: Sum(rhs),rhsMax =   5.58982626346528E-03  1.36617316946677E-02
 cg2d: Sum(rhs),rhsMax =   5.59051689302029E-03  1.36618513192688E-02
 cg2d: Sum(rhs),rhsMax =   5.59119129909910E-03  1.36619709018180E-02
 cg2d: Sum(rhs),rhsMax =   5.59184950311549E-03  1.36620904426513E-02
 cg2d: Sum(rhs),rhsMax =   5.59249150899722E-03  1.36622099396300E-02
 cg2d: Sum(rhs),rhsMax =   5.59311751227310E-03  1.36623293956626E-02
 cg2d: Sum(rhs),rhsMax =   5.59372751863930E-03  1.36624488078924E-02
 cg2d: Sum(rhs),rhsMax =   5.59434891520372E-03  1.36625681847695E-02
 cg2d: Sum(rhs),rhsMax =   5.59495436630586E-03  1.36626875113888E-02
 cg2d: Sum(rhs),rhsMax =   5.59554407746312E-03  1.36628067941696E-02
 cg2d: Sum(rhs),rhsMax =   5.59611784097752E-03  1.36629260349280E-02
 cg2d: Sum(rhs),rhsMax =   5.59667626452757E-03  1.36630452301895E-02
 cg2d: Sum(rhs),rhsMax =   5.59721915402334E-03  1.36631643833965E-02
 cg2d: Sum(rhs),rhsMax =   5.59774697535300E-03  1.36632834914171E-02
 cg2d: Sum(rhs),rhsMax =   5.59825960690790E-03  1.36634025574056E-02
 cg2d: Sum(rhs),rhsMax =   5.59875751430551E-03  1.36635215769399E-02
 cg2d: Sum(rhs),rhsMax =   5.59924066155286E-03  1.36636405546627E-02
 cg2d: Sum(rhs),rhsMax =   5.59970936857156E-03  1.36637594861553E-02
 cg2d: Sum(rhs),rhsMax =   5.60016396102609E-03  1.36638783743628E-02
 cg2d: Sum(rhs),rhsMax =   5.60060452489415E-03  1.36639972155465E-02
 cg2d: Sum(rhs),rhsMax =   5.60103132865029E-03  1.36641160138721E-02
 cg2d: Sum(rhs),rhsMax =   5.60144455610044E-03  1.36642347655843E-02
 cg2d: Sum(rhs),rhsMax =   5.60184452290127E-03  1.36643534744255E-02
 cg2d: Sum(rhs),rhsMax =   5.60223126936552E-03  1.36644721364047E-02
 cg2d: Sum(rhs),rhsMax =   5.60263038693159E-03  1.36645907432277E-02
(PID.TID 0000.0001)      cg2d_init_res =   1.17832613334130E-03
(PID.TID 0000.0001)      cg2d_iters(min,last) =      -1     318
(PID.TID 0000.0001)      cg2d_last_res =   9.95974324969544E-08
(PID.TID 0000.0001) // =======================================================
(PID.TID 0000.0001) // Begin MONITOR dynamic field statistics
(PID.TID 0000.0001) // =======================================================
(PID.TID 0000.0001) %MON time_tsnumber                =                 20880
(PID.TID 0000.0001) %MON time_secondsf                =   2.5056000000000E+07
(PID.TID 0000.0001) %MON dynstat_eta_max              =   1.4009477320579E-01
(PID.TID 0000.0001) %MON dynstat_eta_min              =  -3.6451099619461E-01
(PID.TID 0000.0001) %MON dynstat_eta_mean             =  -3.6434973743706E-07
(PID.TID 0000.0001) %MON dynstat_eta_sd               =   1.2525225382245E-01
(PID.TID 0000.0001) %MON dynstat_eta_del2             =   7.5383556460514E-07
(PID.TID 0000.0001) %MON dynstat_uvel_max             =   1.3658417157852E-01
(PID.TID 0000.0001) %MON dynstat_uvel_min             =  -1.3392295868260E-01
(PID.TID 0000.0001) %MON dynstat_uvel_mean            =   2.0224537998951E-08
(PID.TID 0000.0001) %MON dynstat_uvel_sd              =   5.2296737104394E-02
(PID.TID 0000.0001) %MON dynstat_uvel_del2            =   1.1202097854390E-06
(PID.TID 0000.0001) %MON dynstat_vvel_max             =   1.6869723312422E-01
(PID.TID 0000.0001) %MON dynstat_vvel_min             =  -1.2816016368601E-01
(PID.TID 0000.0001) %MON dynstat_vvel_mean            =  -3.9858167899765E-08
(PID.TID 0000.0001) %MON dynstat_vvel_sd              =   5.0457387259189E-02
(PID.TID 0000.0001) %MON dynstat_vvel_del2            =   1.3019569823407E-06
(PID.TID 0000.0001) %MON dynstat_wvel_max             =   4.0497681009583E-09
(PID.TID 0000.0001) %MON dynstat_wvel_min             =  -6.6267602238804E-09
(PID.TID 0000.0001) %MON dynstat_wvel_mean            =  -1.3799101575880E-20
(PID.TID 0000.0001) %MON dynstat_wvel_sd              =   1.8120754267247E-09
(PID.TID 0000.0001) %MON dynstat_wvel_del2            =   2.2013587891119E-14
(PID.TID 0000.0001) %MON dynstat_theta_max            =   2.0000000000000E+01
(PID.TID 0000.0001) %MON dynstat_theta_min            =   2.0000000000000E+01
(PID.TID 0000.0001) %MON dynstat_theta_mean           =   1.9999999999999E+01
(PID.TID 0000.0001) %MON dynstat_theta_sd             =   1.1972645097557E-12
(PID.TID 0000.0001) %MON dynstat_theta_del2           =   0.0000000000000E+00
(PID.TID 0000.0001) %MON dynstat_salt_max             =   3.0000000000000E+01
(PID.TID 0000.0001) %MON dynstat_salt_min             =   3.0000000000000E+01
(PID.TID 0000.0001) %MON dynstat_salt_mean            =   2.9999999999998E+01
(PID.TID 0000.0001) %MON dynstat_salt_sd              =   2.1529444893531E-12
(PID.TID 0000.0001) %MON dynstat_salt_del2            =   0.0000000000000E+00
(PID.TID 0000.0001) %MON trAdv_CFL_u_max              =   3.2779546142062E-02
(PID.TID 0000.0001) %MON trAdv_CFL_v_max              =   4.0486486531829E-02
(PID.TID 0000.0001) %MON trAdv_CFL_w_max              =   1.0448091479205E-09
(PID.TID 0000.0001) %MON advcfl_uvel_max              =   3.2780201178844E-02
(PID.TID 0000.0001) %MON advcfl_vvel_max              =   4.0487335949812E-02
(PID.TID 0000.0001) %MON advcfl_wvel_max              =   3.1808449074626E-09
(PID.TID 0000.0001) %MON advcfl_W_hf_max              =   0.0000000000000E+00
(PID.TID 0000.0001) %MON pe_b_mean                    =   1.6051102780312E-05
(PID.TID 0000.0001) %MON ke_max                       =   1.4225042526947E-02
(PID.TID 0000.0001) %MON ke_mean                      =   2.6285626576287E-03
(PID.TID 0000.0001) %MON ke_vol                       =   7.2529629296391E+15
(PID.TID 0000.0001) %MON vort_r_min                   =  -4.4778411439243E-06
(PID.TID 0000.0001) %MON vort_r_max                   =   3.5450029517520E-06
(PID.TID 0000.0001) %MON vort_a_mean                  =   1.0615000000000E-04
(PID.TID 0000.0001) %MON vort_a_sd                    =   3.6483345560475E-06
(PID.TID 0000.0001) %MON vort_p_mean                  =   1.1210870169429E-04
(PID.TID 0000.0001) %MON vort_p_sd                    =   2.1072938454553E-05
(PID.TID 0000.0001) %MON surfExpan_theta_mean         =  -2.7605857113038E-19
(PID.TID 0000.0001) %MON surfExpan_salt_mean          =  -4.1408395150498E-19
(PID.TID 0000.0001) // =======================================================
(PID.TID 0000.0001) // End MONITOR dynamic field statistics
(PID.TID 0000.0001) // =======================================================
 cg2d: Sum(rhs),rhsMax =   5.60301669193462E-03  1.36647093147393E-02
 cg2d: Sum(rhs),rhsMax =   5.60339050028882E-03  1.36648278398124E-02
 cg2d: Sum(rhs),rhsMax =   5.60375215152666E-03  1.36649463198497E-02
 cg2d: Sum(rhs),rhsMax =   5.60410199498100E-03  1.36650647540556E-02
 cg2d: Sum(rhs),rhsMax =   5.60444011933185E-03  1.36651831414026E-02
 cg2d: Sum(rhs),rhsMax =   5.60476706686826E-03  1.36653014815399E-02
 cg2d: Sum(rhs),rhsMax =   5.60508308265438E-03  1.36654197766753E-02
 cg2d: Sum(rhs),rhsMax =   5.60538860720698E-03  1.36655380260171E-02
 cg2d: Sum(rhs),rhsMax =   5.60568381945072E-03  1.36656562266870E-02
 cg2d: Sum(rhs),rhsMax =   5.60596915070560E-03  1.36657743808161E-02
 cg2d: Sum(rhs),rhsMax =   5.60624495085630E-03  1.36658924873367E-02
 cg2d: Sum(rhs),rhsMax =   5.60651156702962E-03  1.36660105478067E-02
 cg2d: Sum(rhs),rhsMax =   5.60676932842510E-03  1.36661285594957E-02
 cg2d: Sum(rhs),rhsMax =   5.60701861726895E-03  1.36662465234323E-02
 cg2d: Sum(rhs),rhsMax =   5.60725990548074E-03  1.36663644415027E-02
 cg2d: Sum(rhs),rhsMax =   5.60749357793875E-03  1.36664823118656E-02
 cg2d: Sum(rhs),rhsMax =   5.60771992483027E-03  1.36666001335954E-02
 cg2d: Sum(rhs),rhsMax =   5.60793944681268E-03  1.36667179066287E-02
 cg2d: Sum(rhs),rhsMax =   5.60815247440819E-03  1.36668356307482E-02
 cg2d: Sum(rhs),rhsMax =   5.60835946601949E-03  1.36669533082237E-02
 cg2d: Sum(rhs),rhsMax =   5.60856065949814E-03  1.36670709369513E-02
 cg2d: Sum(rhs),rhsMax =   5.60875678403427E-03  1.36671885165264E-02
 cg2d: Sum(rhs),rhsMax =   5.60894809913562E-03  1.36673060461393E-02
 cg2d: Sum(rhs),rhsMax =   5.60913509999844E-03  1.36674235283282E-02
 cg2d: Sum(rhs),rhsMax =   5.60931821550661E-03  1.36675409600772E-02
 cg2d: Sum(rhs),rhsMax =   5.60949770576733E-03  1.36676583451664E-02
 cg2d: Sum(rhs),rhsMax =   5.60967427646223E-03  1.36677756774212E-02
 cg2d: Sum(rhs),rhsMax =   5.60984829153102E-03  1.36678929623727E-02
 cg2d: Sum(rhs),rhsMax =   5.61004437894581E-03  1.36680102062770E-02
 cg2d: Sum(rhs),rhsMax =   5.61023876783801E-03  1.36681273914107E-02
 cg2d: Sum(rhs),rhsMax =   5.61043196797689E-03  1.36682445266315E-02
 cg2d: Sum(rhs),rhsMax =   5.61062414386039E-03  1.36683616109637E-02
 cg2d: Sum(rhs),rhsMax =   5.61081617719130E-03  1.36684786457921E-02
 cg2d: Sum(rhs),rhsMax =   5.61100818262911E-03  1.36685956287801E-02
 cg2d: Sum(rhs),rhsMax =   5.61120086477575E-03  1.36687125625060E-02
 cg2d: Sum(rhs),rhsMax =   5.61139466479901E-03  1.36688294452385E-02
 cg2d: Sum(rhs),rhsMax =   5.61158986487199E-03  1.36689462775872E-02
 cg2d: Sum(rhs),rhsMax =   5.61178712657120E-03  1.36690630583310E-02
 cg2d: Sum(rhs),rhsMax =   5.61198679436352E-03  1.36691797885745E-02
 cg2d: Sum(rhs),rhsMax =   5.61218927023643E-03  1.36692964669490E-02
 cg2d: Sum(rhs),rhsMax =   5.61239518720428E-03  1.36694130947926E-02
 cg2d: Sum(rhs),rhsMax =   5.61260493901649E-03  1.36695296698768E-02
 cg2d: Sum(rhs),rhsMax =   5.61279435648311E-03  1.36696461856725E-02
 cg2d: Sum(rhs),rhsMax =   5.61298830116086E-03  1.36697626569868E-02
 cg2d: Sum(rhs),rhsMax =   5.61318742063287E-03  1.36698790780341E-02
 cg2d: Sum(rhs),rhsMax =   5.61339194338101E-03  1.36699954456981E-02
 cg2d: Sum(rhs),rhsMax =   5.61360235012905E-03  1.36701117620296E-02
 cg2d: Sum(rhs),rhsMax =   5.61381919151844E-03  1.36702280257076E-02
 cg2d: Sum(rhs),rhsMax =   5.61404282896747E-03  1.36703442385757E-02
 cg2d: Sum(rhs),rhsMax =   5.61427365672456E-03  1.36704603967333E-02
 cg2d: Sum(rhs),rhsMax =   5.61451201574772E-03  1.36705765041845E-02
 cg2d: Sum(rhs),rhsMax =   5.61475835995092E-03  1.36706925555777E-02
 cg2d: Sum(rhs),rhsMax =   5.61501320423841E-03  1.36708085557143E-02
 cg2d: Sum(rhs),rhsMax =   5.61527677511391E-03  1.36709245021202E-02
 cg2d: Sum(rhs),rhsMax =   5.61554953313824E-03  1.36710403964714E-02
 cg2d: Sum(rhs),rhsMax =   5.61583185702382E-03  1.36711562363499E-02
 cg2d: Sum(rhs),rhsMax =   5.61612414633555E-03  1.36712720232594E-02
 cg2d: Sum(rhs),rhsMax =   5.61642663212626E-03  1.36713877551758E-02
 cg2d: Sum(rhs),rhsMax =   5.61673982824222E-03  1.36715034340842E-02
 cg2d: Sum(rhs),rhsMax =   5.61706402020143E-03  1.36716190595962E-02
 cg2d: Sum(rhs),rhsMax =   5.61739956769955E-03  1.36717346317350E-02
 cg2d: Sum(rhs),rhsMax =   5.61774673813789E-03  1.36718501464115E-02
 cg2d: Sum(rhs),rhsMax =   5.61810596363959E-03  1.36719656089725E-02
 cg2d: Sum(rhs),rhsMax =   5.61847743233492E-03  1.36720810164514E-02
 cg2d: Sum(rhs),rhsMax =   5.61886155584225E-03  1.36721963703949E-02
 cg2d: Sum(rhs),rhsMax =   5.61925861232719E-03  1.36723116681245E-02
 cg2d: Sum(rhs),rhsMax =   5.61966869355992E-03  1.36724269124826E-02
 cg2d: Sum(rhs),rhsMax =   5.62009236869169E-03  1.36725420993220E-02
 cg2d: Sum(rhs),rhsMax =   5.62052983013188E-03  1.36726572332664E-02
 cg2d: Sum(rhs),rhsMax =   5.62098125170875E-03  1.36727723108783E-02
 cg2d: Sum(rhs),rhsMax =   5.62144701152158E-03  1.36728873340858E-02
 cg2d: Sum(rhs),rhsMax =   5.62190037876554E-03  1.36730023106438E-02
(PID.TID 0000.0001)      cg2d_init_res =   1.16567667212450E-03
(PID.TID 0000.0001)      cg2d_iters(min,last) =      -1     319
(PID.TID 0000.0001)      cg2d_last_res =   9.42690344952333E-08
(PID.TID 0000.0001) // =======================================================
(PID.TID 0000.0001) // Begin MONITOR dynamic field statistics
(PID.TID 0000.0001) // =======================================================
(PID.TID 0000.0001) %MON time_tsnumber                =                 20952
(PID.TID 0000.0001) %MON time_secondsf                =   2.5142400000000E+07
(PID.TID 0000.0001) %MON dynstat_eta_max              =   1.4006198332577E-01
(PID.TID 0000.0001) %MON dynstat_eta_min              =  -3.6500742908439E-01
(PID.TID 0000.0001) %MON dynstat_eta_mean             =  -3.6583307202922E-07
(PID.TID 0000.0001) %MON dynstat_eta_sd               =   1.2536971738145E-01
(PID.TID 0000.0001) %MON dynstat_eta_del2             =   7.5427378614108E-07
(PID.TID 0000.0001) %MON dynstat_uvel_max             =   1.3677848067385E-01
(PID.TID 0000.0001) %MON dynstat_uvel_min             =  -1.3405910617493E-01
(PID.TID 0000.0001) %MON dynstat_uvel_mean            =   1.3236733409321E-08
(PID.TID 0000.0001) %MON dynstat_uvel_sd              =   5.2352329069885E-02
(PID.TID 0000.0001) %MON dynstat_uvel_del2            =   1.1208268742006E-06
(PID.TID 0000.0001) %MON dynstat_vvel_max             =   1.6895084728139E-01
(PID.TID 0000.0001) %MON dynstat_vvel_min             =  -1.2825575015075E-01
(PID.TID 0000.0001) %MON dynstat_vvel_mean            =  -4.2773002945857E-08
(PID.TID 0000.0001) %MON dynstat_vvel_sd              =   5.0501734870749E-02
(PID.TID 0000.0001) %MON dynstat_vvel_del2            =   1.3012906689734E-06
(PID.TID 0000.0001) %MON dynstat_wvel_max             =   4.2942210775800E-09
(PID.TID 0000.0001) %MON dynstat_wvel_min             =  -6.6666412306949E-09
(PID.TID 0000.0001) %MON dynstat_wvel_mean            =   1.6380472560210E-20
(PID.TID 0000.0001) %MON dynstat_wvel_sd              =   1.7982173886029E-09
(PID.TID 0000.0001) %MON dynstat_wvel_del2            =   2.1540532337629E-14
(PID.TID 0000.0001) %MON dynstat_theta_max            =   2.0000000000000E+01
(PID.TID 0000.0001) %MON dynstat_theta_min            =   2.0000000000000E+01
(PID.TID 0000.0001) %MON dynstat_theta_mean           =   1.9999999999999E+01
(PID.TID 0000.0001) %MON dynstat_theta_sd             =   1.1972645097557E-12
(PID.TID 0000.0001) %MON dynstat_theta_del2           =   0.0000000000000E+00
(PID.TID 0000.0001) %MON dynstat_salt_max             =   3.0000000000000E+01
(PID.TID 0000.0001) %MON dynstat_salt_min             =   3.0000000000000E+01
(PID.TID 0000.0001) %MON dynstat_salt_mean            =   2.9999999999998E+01
(PID.TID 0000.0001) %MON dynstat_salt_sd              =   2.1529444893531E-12
(PID.TID 0000.0001) %MON dynstat_salt_del2            =   0.0000000000000E+00
(PID.TID 0000.0001) %MON trAdv_CFL_u_max              =   3.2826196186288E-02
(PID.TID 0000.0001) %MON trAdv_CFL_v_max              =   4.0547361529529E-02
(PID.TID 0000.0001) %MON trAdv_CFL_w_max              =   1.1075946644170E-09
(PID.TID 0000.0001) %MON advcfl_uvel_max              =   3.2826835361724E-02
(PID.TID 0000.0001) %MON advcfl_vvel_max              =   4.0548203347533E-02
(PID.TID 0000.0001) %MON advcfl_wvel_max              =   3.1999877907336E-09
(PID.TID 0000.0001) %MON advcfl_W_hf_max              =   0.0000000000000E+00
(PID.TID 0000.0001) %MON pe_b_mean                    =   1.6081222857024E-05
(PID.TID 0000.0001) %MON ke_max                       =   1.4268076360622E-02
(PID.TID 0000.0001) %MON ke_mean                      =   2.6336869585036E-03
(PID.TID 0000.0001) %MON ke_vol                       =   7.2529629296391E+15
(PID.TID 0000.0001) %MON vort_r_min                   =  -4.4801957069606E-06
(PID.TID 0000.0001) %MON vort_r_max                   =   3.5415470058845E-06
(PID.TID 0000.0001) %MON vort_a_mean                  =   1.0615000000000E-04
(PID.TID 0000.0001) %MON vort_a_sd                    =   3.6484416807322E-06
(PID.TID 0000.0001) %MON vort_p_mean                  =   1.1210870169429E-04
(PID.TID 0000.0001) %MON vort_p_sd                    =   2.1072975865602E-05
(PID.TID 0000.0001) %MON surfExpan_theta_mean         =   3.2747454765151E-19
(PID.TID 0000.0001) %MON surfExpan_salt_mean          =   4.9121784364279E-19
(PID.TID 0000.0001) // =======================================================
(PID.TID 0000.0001) // End MONITOR dynamic field statistics
(PID.TID 0000.0001) // =======================================================
 cg2d: Sum(rhs),rhsMax =   5.62236813884324E-03  1.36731172220690E-02
 cg2d: Sum(rhs),rhsMax =   5.62285077105611E-03  1.36732320781260E-02
 cg2d: Sum(rhs),rhsMax =   5.62334823397845E-03  1.36733468776542E-02
 cg2d: Sum(rhs),rhsMax =   5.62386088484424E-03  1.36734616209983E-02
 cg2d: Sum(rhs),rhsMax =   5.62438875201876E-03  1.36735763078751E-02
 cg2d: Sum(rhs),rhsMax =   5.62493207930701E-03  1.36736909386042E-02
 cg2d: Sum(rhs),rhsMax =   5.62549105228556E-03  1.36738055126236E-02
 cg2d: Sum(rhs),rhsMax =   5.62606545062705E-03  1.36739200300762E-02
 cg2d: Sum(rhs),rhsMax =   5.62665612708401E-03  1.36740344904962E-02
 cg2d: Sum(rhs),rhsMax =   5.62726281085530E-03  1.36741488946460E-02
 cg2d: Sum(rhs),rhsMax =   5.62788585006841E-03  1.36742632408510E-02
 cg2d: Sum(rhs),rhsMax =   5.62852517825772E-03  1.36743775308586E-02
 cg2d: Sum(rhs),rhsMax =   5.62918104495050E-03  1.36744917627418E-02
 cg2d: Sum(rhs),rhsMax =   5.62985348037390E-03  1.36746059384846E-02
 cg2d: Sum(rhs),rhsMax =   5.63054261769372E-03  1.36747200558638E-02
 cg2d: Sum(rhs),rhsMax =   5.63124853253940E-03  1.36748341166605E-02
 cg2d: Sum(rhs),rhsMax =   5.63197136329379E-03  1.36749481186554E-02
 cg2d: Sum(rhs),rhsMax =   5.63268090913474E-03  1.36750620550096E-02
 cg2d: Sum(rhs),rhsMax =   5.63340703036606E-03  1.36751759409031E-02
 cg2d: Sum(rhs),rhsMax =   5.63415005138233E-03  1.36752897695176E-02
 cg2d: Sum(rhs),rhsMax =   5.63490968267590E-03  1.36754035389267E-02
 cg2d: Sum(rhs),rhsMax =   5.63568625288349E-03  1.36755172512265E-02
 cg2d: Sum(rhs),rhsMax =   5.63647955583803E-03  1.36756309040303E-02
 cg2d: Sum(rhs),rhsMax =   5.63728980066290E-03  1.36757444989885E-02
 cg2d: Sum(rhs),rhsMax =   5.63811699176736E-03  1.36758580347545E-02
 cg2d: Sum(rhs),rhsMax =   5.63896109383276E-03  1.36759715118244E-02
 cg2d: Sum(rhs),rhsMax =   5.63982204404239E-03  1.36760849295206E-02
 cg2d: Sum(rhs),rhsMax =   5.64070001831497E-03  1.36761982883442E-02
 cg2d: Sum(rhs),rhsMax =   5.64159481523719E-03  1.36763115878457E-02
 cg2d: Sum(rhs),rhsMax =   5.64250665409952E-03  1.36764248282080E-02
 cg2d: Sum(rhs),rhsMax =   5.64340248051008E-03  1.36765380167910E-02
 cg2d: Sum(rhs),rhsMax =   5.64431494816325E-03  1.36766511391444E-02
 cg2d: Sum(rhs),rhsMax =   5.64524390082143E-03  1.36767641997180E-02
 cg2d: Sum(rhs),rhsMax =   5.64618929858685E-03  1.36768772019498E-02
 cg2d: Sum(rhs),rhsMax =   5.64715105263319E-03  1.36769901424105E-02
 cg2d: Sum(rhs),rhsMax =   5.64812925113358E-03  1.36771030245415E-02
 cg2d: Sum(rhs),rhsMax =   5.64912366409402E-03  1.36772158449901E-02
 cg2d: Sum(rhs),rhsMax =   5.65013443350941E-03  1.36773286064629E-02
 cg2d: Sum(rhs),rhsMax =   5.65116104809208E-03  1.36774413066054E-02
 cg2d: Sum(rhs),rhsMax =   5.65220412507382E-03  1.36775539468323E-02
 cg2d: Sum(rhs),rhsMax =   5.65322796952522E-03  1.36776665220699E-02
 cg2d: Sum(rhs),rhsMax =   5.65426718676866E-03  1.36777790395232E-02
 cg2d: Sum(rhs),rhsMax =   5.65532213490010E-03  1.36778914977810E-02
 cg2d: Sum(rhs),rhsMax =   5.65639244711729E-03  1.36780038941017E-02
 cg2d: Sum(rhs),rhsMax =   5.65747824157475E-03  1.36781162294209E-02
 cg2d: Sum(rhs),rhsMax =   5.65857935824064E-03  1.36782285030105E-02
 cg2d: Sum(rhs),rhsMax =   5.65969570957794E-03  1.36783407157960E-02
 cg2d: Sum(rhs),rhsMax =   5.66082723662100E-03  1.36784528667017E-02
 cg2d: Sum(rhs),rhsMax =   5.66193603674686E-03  1.36785649554171E-02
 cg2d: Sum(rhs),rhsMax =   5.66305930847618E-03  1.36786769844572E-02
 cg2d: Sum(rhs),rhsMax =   5.66419723153731E-03  1.36787889489471E-02
 cg2d: Sum(rhs),rhsMax =   5.66534920240928E-03  1.36789008542660E-02
 cg2d: Sum(rhs),rhsMax =   5.66651571329326E-03  1.36790126946431E-02
 cg2d: Sum(rhs),rhsMax =   5.66765723957650E-03  1.36791244781173E-02
 cg2d: Sum(rhs),rhsMax =   5.66881235391863E-03  1.36792361949101E-02
 cg2d: Sum(rhs),rhsMax =   5.66998116089514E-03  1.36793478499591E-02
 cg2d: Sum(rhs),rhsMax =   5.67112350526175E-03  1.36794594366508E-02
 cg2d: Sum(rhs),rhsMax =   5.67227872598236E-03  1.36795709655492E-02
 cg2d: Sum(rhs),rhsMax =   5.67344693835000E-03  1.36796824327246E-02
 cg2d: Sum(rhs),rhsMax =   5.67458675249499E-03  1.36797938466025E-02
 cg2d: Sum(rhs),rhsMax =   5.67573868235880E-03  1.36799051873607E-02
 cg2d: Sum(rhs),rhsMax =   5.67686185962724E-03  1.36800164544516E-02
 cg2d: Sum(rhs),rhsMax =   5.67799654625197E-03  1.36801276691870E-02
 cg2d: Sum(rhs),rhsMax =   5.67914278074589E-03  1.36802388204682E-02
 cg2d: Sum(rhs),rhsMax =   5.68030006550418E-03  1.36803499085204E-02
 cg2d: Sum(rhs),rhsMax =   5.68142634383449E-03  1.36804609405596E-02
 cg2d: Sum(rhs),rhsMax =   5.68256318838088E-03  1.36805719018214E-02
 cg2d: Sum(rhs),rhsMax =   5.68371073751359E-03  1.36806827982323E-02
 cg2d: Sum(rhs),rhsMax =   5.68486859582849E-03  1.36807936315953E-02
 cg2d: Sum(rhs),rhsMax =   5.68603703406886E-03  1.36809044000865E-02
 cg2d: Sum(rhs),rhsMax =   5.68721534120945E-03  1.36810151046903E-02
 cg2d: Sum(rhs),rhsMax =   5.68835975933372E-03  1.36811257379180E-02
(PID.TID 0000.0001)      cg2d_init_res =   1.15177989798044E-03
(PID.TID 0000.0001)      cg2d_iters(min,last) =      -1     329
(PID.TID 0000.0001)      cg2d_last_res =   9.80063040895273E-08
(PID.TID 0000.0001) // =======================================================
(PID.TID 0000.0001) // Begin MONITOR dynamic field statistics
(PID.TID 0000.0001) // =======================================================
(PID.TID 0000.0001) %MON time_tsnumber                =                 21024
(PID.TID 0000.0001) %MON time_secondsf                =   2.5228800000000E+07
(PID.TID 0000.0001) %MON dynstat_eta_max              =   1.4004097209905E-01
(PID.TID 0000.0001) %MON dynstat_eta_min              =  -3.6550742472242E-01
(PID.TID 0000.0001) %MON dynstat_eta_mean             =  -3.7042189560374E-07
(PID.TID 0000.0001) %MON dynstat_eta_sd               =   1.2548796527738E-01
(PID.TID 0000.0001) %MON dynstat_eta_del2             =   7.5471766132118E-07
(PID.TID 0000.0001) %MON dynstat_uvel_max             =   1.3696845135480E-01
(PID.TID 0000.0001) %MON dynstat_uvel_min             =  -1.3419615510645E-01
(PID.TID 0000.0001) %MON dynstat_uvel_mean            =   6.0061396576389E-09
(PID.TID 0000.0001) %MON dynstat_uvel_sd              =   5.2408000636401E-02
(PID.TID 0000.0001) %MON dynstat_uvel_del2            =   1.1214226397285E-06
(PID.TID 0000.0001) %MON dynstat_vvel_max             =   1.6920251711848E-01
(PID.TID 0000.0001) %MON dynstat_vvel_min             =  -1.2833586130728E-01
(PID.TID 0000.0001) %MON dynstat_vvel_mean            =  -4.4465415892579E-08
(PID.TID 0000.0001) %MON dynstat_vvel_sd              =   5.0545891116626E-02
(PID.TID 0000.0001) %MON dynstat_vvel_del2            =   1.3008731719088E-06
(PID.TID 0000.0001) %MON dynstat_wvel_max             =   4.4839013344608E-09
(PID.TID 0000.0001) %MON dynstat_wvel_min             =  -6.6999502573162E-09
(PID.TID 0000.0001) %MON dynstat_wvel_mean            =   1.2468643944637E-20
(PID.TID 0000.0001) %MON dynstat_wvel_sd              =   1.7873756720204E-09
(PID.TID 0000.0001) %MON dynstat_wvel_del2            =   2.1360170510172E-14
(PID.TID 0000.0001) %MON dynstat_theta_max            =   2.0000000000000E+01
(PID.TID 0000.0001) %MON dynstat_theta_min            =   2.0000000000000E+01
(PID.TID 0000.0001) %MON dynstat_theta_mean           =   1.9999999999999E+01
(PID.TID 0000.0001) %MON dynstat_theta_sd             =   1.1972645097557E-12
(PID.TID 0000.0001) %MON dynstat_theta_del2           =   0.0000000000000E+00
(PID.TID 0000.0001) %MON dynstat_salt_max             =   3.0000000000000E+01
(PID.TID 0000.0001) %MON dynstat_salt_min             =   3.0000000000000E+01
(PID.TID 0000.0001) %MON dynstat_salt_mean            =   2.9999999999998E+01
(PID.TID 0000.0001) %MON dynstat_salt_sd              =   2.1529444893531E-12
(PID.TID 0000.0001) %MON dynstat_salt_del2            =   0.0000000000000E+00
(PID.TID 0000.0001) %MON trAdv_CFL_u_max              =   3.2871804056036E-02
(PID.TID 0000.0001) %MON trAdv_CFL_v_max              =   4.0607767691792E-02
(PID.TID 0000.0001) %MON trAdv_CFL_w_max              =   1.1547404865496E-09
(PID.TID 0000.0001) %MON advcfl_uvel_max              =   3.2872428325151E-02
(PID.TID 0000.0001) %MON advcfl_vvel_max              =   4.0608604108434E-02
(PID.TID 0000.0001) %MON advcfl_wvel_max              =   3.2159761235118E-09
(PID.TID 0000.0001) %MON advcfl_W_hf_max              =   0.0000000000000E+00
(PID.TID 0000.0001) %MON pe_b_mean                    =   1.6111572571155E-05
(PID.TID 0000.0001) %MON ke_max                       =   1.4310847174950E-02
(PID.TID 0000.0001) %MON ke_mean                      =   2.6388108175138E-03
(PID.TID 0000.0001) %MON ke_vol                       =   7.2529629296391E+15
(PID.TID 0000.0001) %MON vort_r_min                   =  -4.4824741290885E-06
(PID.TID 0000.0001) %MON vort_r_max                   =   3.5388909621676E-06
(PID.TID 0000.0001) %MON vort_a_mean                  =   1.0615000000000E-04
(PID.TID 0000.0001) %MON vort_a_sd                    =   3.6485503475997E-06
(PID.TID 0000.0001) %MON vort_p_mean                  =   1.1210870169429E-04
(PID.TID 0000.0001) %MON vort_p_sd                    =   2.1073013959599E-05
(PID.TID 0000.0001) %MON surfExpan_theta_mean         =   2.4925709075721E-19
(PID.TID 0000.0001) %MON surfExpan_salt_mean          =   3.7388479075480E-19
(PID.TID 0000.0001) // =======================================================
(PID.TID 0000.0001) // End MONITOR dynamic field statistics
(PID.TID 0000.0001) // =======================================================
 cg2d: Sum(rhs),rhsMax =   5.68951383653191E-03  1.36812363145841E-02
 cg2d: Sum(rhs),rhsMax =   5.69067753804634E-03  1.36813468263327E-02
 cg2d: Sum(rhs),rhsMax =   5.69185025207177E-03  1.36814572725903E-02
 cg2d: Sum(rhs),rhsMax =   5.69303263499392E-03  1.36815676560749E-02
 cg2d: Sum(rhs),rhsMax =   5.69422433075036E-03  1.36816779733810E-02
 cg2d: Sum(rhs),rhsMax =   5.69542514528386E-03  1.36817882268134E-02
 cg2d: Sum(rhs),rhsMax =   5.69658858868182E-03  1.36818984183054E-02
 cg2d: Sum(rhs),rhsMax =   5.69776031715696E-03  1.36820085424035E-02
 cg2d: Sum(rhs),rhsMax =   5.69894070491470E-03  1.36821185995769E-02
 cg2d: Sum(rhs),rhsMax =   5.70012912873581E-03  1.36822285925493E-02
 cg2d: Sum(rhs),rhsMax =   5.70132604352719E-03  1.36823385192671E-02
 cg2d: Sum(rhs),rhsMax =   5.70253110639246E-03  1.36824483812021E-02
 cg2d: Sum(rhs),rhsMax =   5.70369597525528E-03  1.36825581763928E-02
 cg2d: Sum(rhs),rhsMax =   5.70486850381334E-03  1.36826679065965E-02
 cg2d: Sum(rhs),rhsMax =   5.70604864711918E-03  1.36827775711985E-02
 cg2d: Sum(rhs),rhsMax =   5.70723606274323E-03  1.36828871691357E-02
 cg2d: Sum(rhs),rhsMax =   5.70843094262904E-03  1.36829967020706E-02
 cg2d: Sum(rhs),rhsMax =   5.70958310344784E-03  1.36831061647529E-02
 cg2d: Sum(rhs),rhsMax =   5.71074190232305E-03  1.36832155652376E-02
 cg2d: Sum(rhs),rhsMax =   5.71185762120682E-03  1.36833249034510E-02
 cg2d: Sum(rhs),rhsMax =   5.71292971331290E-03  1.36834341627916E-02
 cg2d: Sum(rhs),rhsMax =   5.71400715647375E-03  1.36835433634972E-02
 cg2d: Sum(rhs),rhsMax =   5.71509067091796E-03  1.36836524978630E-02
 cg2d: Sum(rhs),rhsMax =   5.71612901379892E-03  1.36837615757901E-02
 cg2d: Sum(rhs),rhsMax =   5.71717245183570E-03  1.36838705763906E-02
 cg2d: Sum(rhs),rhsMax =   5.71822137710532E-03  1.36839795103921E-02
 cg2d: Sum(rhs),rhsMax =   5.71927517781235E-03  1.36840883766047E-02
 cg2d: Sum(rhs),rhsMax =   5.72033423693682E-03  1.36841971769707E-02
 cg2d: Sum(rhs),rhsMax =   5.72134650444849E-03  1.36843058997515E-02
 cg2d: Sum(rhs),rhsMax =   5.72236301166744E-03  1.36844145649129E-02
 cg2d: Sum(rhs),rhsMax =   5.72338443096849E-03  1.36845231632511E-02
 cg2d: Sum(rhs),rhsMax =   5.72441000930574E-03  1.36846316936203E-02
 cg2d: Sum(rhs),rhsMax =   5.72544007731438E-03  1.36847401560057E-02
 cg2d: Sum(rhs),rhsMax =   5.72647447153112E-03  1.36848485502053E-02
 cg2d: Sum(rhs),rhsMax =   5.72751301111604E-03  1.36849568776766E-02
 cg2d: Sum(rhs),rhsMax =   5.72855545904089E-03  1.36850651369138E-02
 cg2d: Sum(rhs),rhsMax =   5.72954949808440E-03  1.36851733341370E-02
 cg2d: Sum(rhs),rhsMax =   5.73054700648661E-03  1.36852814589499E-02
 cg2d: Sum(rhs),rhsMax =   5.73154841552013E-03  1.36853895133822E-02
 cg2d: Sum(rhs),rhsMax =   5.73255343697927E-03  1.36854975002432E-02
 cg2d: Sum(rhs),rhsMax =   5.73356219795678E-03  1.36856054185631E-02
 cg2d: Sum(rhs),rhsMax =   5.73457441917745E-03  1.36857132689323E-02
 cg2d: Sum(rhs),rhsMax =   5.73559022396317E-03  1.36858210501121E-02
 cg2d: Sum(rhs),rhsMax =   5.73660946044820E-03  1.36859287629973E-02
 cg2d: Sum(rhs),rhsMax =   5.73763206682527E-03  1.36860364065468E-02
 cg2d: Sum(rhs),rhsMax =   5.73865809318109E-03  1.36861439822653E-02
 cg2d: Sum(rhs),rhsMax =   5.73968728479624E-03  1.36862514883485E-02
 cg2d: Sum(rhs),rhsMax =   5.74071980883181E-03  1.36863589258081E-02
 cg2d: Sum(rhs),rhsMax =   5.74170105686233E-03  1.36864662893835E-02
 cg2d: Sum(rhs),rhsMax =   5.74268509533296E-03  1.36865735884353E-02
 cg2d: Sum(rhs),rhsMax =   5.74367215891305E-03  1.36866808182649E-02
 cg2d: Sum(rhs),rhsMax =   5.74466203656764E-03  1.36867879785080E-02
 cg2d: Sum(rhs),rhsMax =   5.74565420573394E-03  1.36868950686387E-02
 cg2d: Sum(rhs),rhsMax =   5.74664964584154E-03  1.36870020903941E-02
 cg2d: Sum(rhs),rhsMax =   5.74764760719735E-03  1.36871090418763E-02
 cg2d: Sum(rhs),rhsMax =   5.74864836070837E-03  1.36872159237776E-02
 cg2d: Sum(rhs),rhsMax =   5.74965179304737E-03  1.36873227350483E-02
 cg2d: Sum(rhs),rhsMax =   5.75065778419762E-03  1.36874294775344E-02
 cg2d: Sum(rhs),rhsMax =   5.75166645499006E-03  1.36875361501524E-02
 cg2d: Sum(rhs),rhsMax =   5.75267725256410E-03  1.36876427521221E-02
 cg2d: Sum(rhs),rhsMax =   5.75369093817956E-03  1.36877492838688E-02
 cg2d: Sum(rhs),rhsMax =   5.75470694595541E-03  1.36878557457183E-02
 cg2d: Sum(rhs),rhsMax =   5.75572541011445E-03  1.36879621364695E-02
 cg2d: Sum(rhs),rhsMax =   5.75674637151241E-03  1.36880684579889E-02
 cg2d: Sum(rhs),rhsMax =   5.75771366687962E-03  1.36881747104187E-02
 cg2d: Sum(rhs),rhsMax =   5.75868302451262E-03  1.36882808900421E-02
 cg2d: Sum(rhs),rhsMax =   5.75965466330475E-03  1.36883869996448E-02
 cg2d: Sum(rhs),rhsMax =   5.76062812939325E-03  1.36884930378477E-02
 cg2d: Sum(rhs),rhsMax =   5.76160380716343E-03  1.36885990058386E-02
 cg2d: Sum(rhs),rhsMax =   5.76258132563584E-03  1.36887049016078E-02
 cg2d: Sum(rhs),rhsMax =   5.76356071997786E-03  1.36888107274265E-02
 cg2d: Sum(rhs),rhsMax =   5.76454223972063E-03  1.36889164814355E-02
(PID.TID 0000.0001)      cg2d_init_res =   1.13736855633505E-03
(PID.TID 0000.0001)      cg2d_iters(min,last) =      -1     339
(PID.TID 0000.0001)      cg2d_last_res =   9.82010791608188E-08
(PID.TID 0000.0001) // =======================================================
(PID.TID 0000.0001) // Begin MONITOR dynamic field statistics
(PID.TID 0000.0001) // =======================================================
(PID.TID 0000.0001) %MON time_tsnumber                =                 21096
(PID.TID 0000.0001) %MON time_secondsf                =   2.5315200000000E+07
(PID.TID 0000.0001) %MON dynstat_eta_max              =   1.4003569124271E-01
(PID.TID 0000.0001) %MON dynstat_eta_min              =  -3.6601094245772E-01
(PID.TID 0000.0001) %MON dynstat_eta_mean             =  -3.7558434760723E-07
(PID.TID 0000.0001) %MON dynstat_eta_sd               =   1.2560689626353E-01
(PID.TID 0000.0001) %MON dynstat_eta_del2             =   7.5516838620190E-07
(PID.TID 0000.0001) %MON dynstat_uvel_max             =   1.3715115755609E-01
(PID.TID 0000.0001) %MON dynstat_uvel_min             =  -1.3433390463885E-01
(PID.TID 0000.0001) %MON dynstat_uvel_mean            =  -1.1261302273827E-09
(PID.TID 0000.0001) %MON dynstat_uvel_sd              =   5.2463184507509E-02
(PID.TID 0000.0001) %MON dynstat_uvel_del2            =   1.1219847009211E-06
(PID.TID 0000.0001) %MON dynstat_vvel_max             =   1.6945288866006E-01
(PID.TID 0000.0001) %MON dynstat_vvel_min             =  -1.2840191491868E-01
(PID.TID 0000.0001) %MON dynstat_vvel_mean            =  -4.4925826424816E-08
(PID.TID 0000.0001) %MON dynstat_vvel_sd              =   5.0590475802439E-02
(PID.TID 0000.0001) %MON dynstat_vvel_del2            =   1.3007162731518E-06
(PID.TID 0000.0001) %MON dynstat_wvel_max             =   4.6122301765718E-09
(PID.TID 0000.0001) %MON dynstat_wvel_min             =  -6.7178239766508E-09
(PID.TID 0000.0001) %MON dynstat_wvel_mean            =  -1.0510631364090E-20
(PID.TID 0000.0001) %MON dynstat_wvel_sd              =   1.7791105995436E-09
(PID.TID 0000.0001) %MON dynstat_wvel_del2            =   2.1134274649269E-14
(PID.TID 0000.0001) %MON dynstat_theta_max            =   2.0000000000000E+01
(PID.TID 0000.0001) %MON dynstat_theta_min            =   2.0000000000000E+01
(PID.TID 0000.0001) %MON dynstat_theta_mean           =   1.9999999999999E+01
(PID.TID 0000.0001) %MON dynstat_theta_sd             =   1.1972645097557E-12
(PID.TID 0000.0001) %MON dynstat_theta_del2           =   0.0000000000000E+00
(PID.TID 0000.0001) %MON dynstat_salt_max             =   3.0000000000000E+01
(PID.TID 0000.0001) %MON dynstat_salt_min             =   3.0000000000000E+01
(PID.TID 0000.0001) %MON dynstat_salt_mean            =   2.9999999999998E+01
(PID.TID 0000.0001) %MON dynstat_salt_sd              =   2.1529444893531E-12
(PID.TID 0000.0001) %MON dynstat_salt_del2            =   0.0000000000000E+00
(PID.TID 0000.0001) %MON trAdv_CFL_u_max              =   3.2915684765651E-02
(PID.TID 0000.0001) %MON trAdv_CFL_v_max              =   4.0667860171505E-02
(PID.TID 0000.0001) %MON trAdv_CFL_w_max              =   1.1862757517689E-09
(PID.TID 0000.0001) %MON advcfl_uvel_max              =   3.2916277813462E-02
(PID.TID 0000.0001) %MON advcfl_vvel_max              =   4.0668693278415E-02
(PID.TID 0000.0001) %MON advcfl_wvel_max              =   3.2245555087924E-09
(PID.TID 0000.0001) %MON advcfl_W_hf_max              =   0.0000000000000E+00
(PID.TID 0000.0001) %MON pe_b_mean                    =   1.6142126468994E-05
(PID.TID 0000.0001) %MON ke_max                       =   1.4353461237862E-02
(PID.TID 0000.0001) %MON ke_mean                      =   2.6439358092151E-03
(PID.TID 0000.0001) %MON ke_vol                       =   7.2529629296391E+15
(PID.TID 0000.0001) %MON vort_r_min                   =  -4.4846596823514E-06
(PID.TID 0000.0001) %MON vort_r_max                   =   3.5371251193757E-06
(PID.TID 0000.0001) %MON vort_a_mean                  =   1.0615000000000E-04
(PID.TID 0000.0001) %MON vort_a_sd                    =   3.6486606522098E-06
(PID.TID 0000.0001) %MON vort_p_mean                  =   1.1210870169429E-04
(PID.TID 0000.0001) %MON vort_p_sd                    =   2.1073053496173E-05
(PID.TID 0000.0001) %MON surfExpan_theta_mean         =  -2.1036353878137E-19
(PID.TID 0000.0001) %MON surfExpan_salt_mean          =  -3.1553437457771E-19
(PID.TID 0000.0001) // =======================================================
(PID.TID 0000.0001) // End MONITOR dynamic field statistics
(PID.TID 0000.0001) // =======================================================
 cg2d: Sum(rhs),rhsMax =   5.76552567796496E-03  1.36890221654014E-02
 cg2d: Sum(rhs),rhsMax =   5.76651104191598E-03  1.36891277767810E-02
 cg2d: Sum(rhs),rhsMax =   5.76749819824589E-03  1.36892333177970E-02
 cg2d: Sum(rhs),rhsMax =   5.76848728964911E-03  1.36893387866851E-02
 cg2d: Sum(rhs),rhsMax =   5.76947810275719E-03  1.36894441851435E-02
 cg2d: Sum(rhs),rhsMax =   5.77047080257581E-03  1.36895495107405E-02
 cg2d: Sum(rhs),rhsMax =   5.77146507223643E-03  1.36896547659469E-02
 cg2d: Sum(rhs),rhsMax =   5.77246128706558E-03  1.36897599480655E-02
 cg2d: Sum(rhs),rhsMax =   5.77345883057162E-03  1.36898650601086E-02
 cg2d: Sum(rhs),rhsMax =   5.77445840719877E-03  1.36899700983465E-02
 cg2d: Sum(rhs),rhsMax =   5.77545933721643E-03  1.36900750659037E-02
 cg2d: Sum(rhs),rhsMax =   5.77646221741884E-03  1.36901799600969E-02
 cg2d: Sum(rhs),rhsMax =   5.77746665541838E-03  1.36902847835918E-02
 cg2d: Sum(rhs),rhsMax =   5.77847281384883E-03  1.36903895334662E-02
 cg2d: Sum(rhs),rhsMax =   5.77942362294769E-03  1.36904942141215E-02
 cg2d: Sum(rhs),rhsMax =   5.78037560522285E-03  1.36905988195437E-02
 cg2d: Sum(rhs),rhsMax =   5.78132934343517E-03  1.36907033540986E-02
 cg2d: Sum(rhs),rhsMax =   5.78228401075364E-03  1.36908078139305E-02
 cg2d: Sum(rhs),rhsMax =   5.78324030411581E-03  1.36909122036120E-02
 cg2d: Sum(rhs),rhsMax =   5.78419788498752E-03  1.36910165196195E-02
 cg2d: Sum(rhs),rhsMax =   5.78515680382877E-03  1.36911207629384E-02
 cg2d: Sum(rhs),rhsMax =   5.78611712823768E-03  1.36912249321638E-02
 cg2d: Sum(rhs),rhsMax =   5.78707832659474E-03  1.36913290294991E-02
 cg2d: Sum(rhs),rhsMax =   5.78804111968854E-03  1.36914330537192E-02
 cg2d: Sum(rhs),rhsMax =   5.78900503106275E-03  1.36915370057771E-02
 cg2d: Sum(rhs),rhsMax =   5.78997029339488E-03  1.36916408835701E-02
 cg2d: Sum(rhs),rhsMax =   5.79093677704161E-03  1.36917446893119E-02
 cg2d: Sum(rhs),rhsMax =   5.79190442632371E-03  1.36918484205473E-02
 cg2d: Sum(rhs),rhsMax =   5.79287289086135E-03  1.36919520796895E-02
 cg2d: Sum(rhs),rhsMax =   5.79384282579659E-03  1.36920556648812E-02
 cg2d: Sum(rhs),rhsMax =   5.79481392914916E-03  1.36921591772360E-02
 cg2d: Sum(rhs),rhsMax =   5.79578599685006E-03  1.36922626156803E-02
 cg2d: Sum(rhs),rhsMax =   5.79675939572890E-03  1.36923659804065E-02
 cg2d: Sum(rhs),rhsMax =   5.79773389078126E-03  1.36924692705432E-02
 cg2d: Sum(rhs),rhsMax =   5.79870948341810E-03  1.36925724883284E-02
 cg2d: Sum(rhs),rhsMax =   5.79968598821058E-03  1.36926756311003E-02
 cg2d: Sum(rhs),rhsMax =   5.80066347565881E-03  1.36927787014235E-02
 cg2d: Sum(rhs),rhsMax =   5.80164210335631E-03  1.36928816964934E-02
 cg2d: Sum(rhs),rhsMax =   5.80262169460453E-03  1.36929846184203E-02
 cg2d: Sum(rhs),rhsMax =   5.80360241181855E-03  1.36930874656404E-02
 cg2d: Sum(rhs),rhsMax =   5.80458413434453E-03  1.36931902397245E-02
 cg2d: Sum(rhs),rhsMax =   5.80556666612413E-03  1.36932929383007E-02
 cg2d: Sum(rhs),rhsMax =   5.80649379463052E-03  1.36933955589187E-02
 cg2d: Sum(rhs),rhsMax =   5.80742178597195E-03  1.36934981094138E-02
 cg2d: Sum(rhs),rhsMax =   5.80835077098922E-03  1.36936005855474E-02
 cg2d: Sum(rhs),rhsMax =   5.80928048424715E-03  1.36937029874585E-02
 cg2d: Sum(rhs),rhsMax =   5.81021108164600E-03  1.36938053143630E-02
 cg2d: Sum(rhs),rhsMax =   5.81114239120562E-03  1.36939075672097E-02
 cg2d: Sum(rhs),rhsMax =   5.81207448885268E-03  1.36940097461546E-02
 cg2d: Sum(rhs),rhsMax =   5.81300749944210E-03  1.36941118493968E-02
 cg2d: Sum(rhs),rhsMax =   5.81394140164887E-03  1.36942138779984E-02
 cg2d: Sum(rhs),rhsMax =   5.81487601043480E-03  1.36943158318753E-02
 cg2d: Sum(rhs),rhsMax =   5.81581138018026E-03  1.36944177104295E-02
 cg2d: Sum(rhs),rhsMax =   5.81674740376024E-03  1.36945195134261E-02
 cg2d: Sum(rhs),rhsMax =   5.81768434579513E-03  1.36946212420801E-02
 cg2d: Sum(rhs),rhsMax =   5.81862209914936E-03  1.36947228950149E-02
 cg2d: Sum(rhs),rhsMax =   5.81956030679622E-03  1.36948244744807E-02
 cg2d: Sum(rhs),rhsMax =   5.82049935745800E-03  1.36949259774614E-02
 cg2d: Sum(rhs),rhsMax =   5.82143921467205E-03  1.36950274059465E-02
 cg2d: Sum(rhs),rhsMax =   5.82237983398402E-03  1.36951287582400E-02
 cg2d: Sum(rhs),rhsMax =   5.82332110157680E-03  1.36952300360729E-02
 cg2d: Sum(rhs),rhsMax =   5.82426308411325E-03  1.36953312378685E-02
 cg2d: Sum(rhs),rhsMax =   5.82520566902799E-03  1.36954323646678E-02
 cg2d: Sum(rhs),rhsMax =   5.82614889272569E-03  1.36955334149086E-02
 cg2d: Sum(rhs),rhsMax =   5.82709282288632E-03  1.36956343904774E-02
 cg2d: Sum(rhs),rhsMax =   5.82803740135653E-03  1.36957352898791E-02
 cg2d: Sum(rhs),rhsMax =   5.82898269146288E-03  1.36958361139168E-02
 cg2d: Sum(rhs),rhsMax =   5.82992862326800E-03  1.36959368612385E-02
 cg2d: Sum(rhs),rhsMax =   5.83087517172735E-03  1.36960375338932E-02
 cg2d: Sum(rhs),rhsMax =   5.83182235287200E-03  1.36961381298479E-02
 cg2d: Sum(rhs),rhsMax =   5.83277008954745E-03  1.36962386507207E-02
 cg2d: Sum(rhs),rhsMax =   5.83371847974343E-03  1.36963390940849E-02
(PID.TID 0000.0001)      cg2d_init_res =   1.12323055413259E-03
(PID.TID 0000.0001)      cg2d_iters(min,last) =      -1     341
(PID.TID 0000.0001)      cg2d_last_res =   9.91284280988195E-08
(PID.TID 0000.0001) // =======================================================
(PID.TID 0000.0001) // Begin MONITOR dynamic field statistics
(PID.TID 0000.0001) // =======================================================
(PID.TID 0000.0001) %MON time_tsnumber                =                 21168
(PID.TID 0000.0001) %MON time_secondsf                =   2.5401600000000E+07
(PID.TID 0000.0001) %MON dynstat_eta_max              =   1.4004923102240E-01
(PID.TID 0000.0001) %MON dynstat_eta_min              =  -3.6651769996615E-01
(PID.TID 0000.0001) %MON dynstat_eta_mean             =  -3.8029440739648E-07
(PID.TID 0000.0001) %MON dynstat_eta_sd               =   1.2572637133468E-01
(PID.TID 0000.0001) %MON dynstat_eta_del2             =   7.5562661652390E-07
(PID.TID 0000.0001) %MON dynstat_uvel_max             =   1.3732350390436E-01
(PID.TID 0000.0001) %MON dynstat_uvel_min             =  -1.3447591528473E-01
(PID.TID 0000.0001) %MON dynstat_uvel_mean            =  -7.8366279464991E-09
(PID.TID 0000.0001) %MON dynstat_uvel_sd              =   5.2517337915617E-02
(PID.TID 0000.0001) %MON dynstat_uvel_del2            =   1.1225024568360E-06
(PID.TID 0000.0001) %MON dynstat_vvel_max             =   1.6970255981587E-01
(PID.TID 0000.0001) %MON dynstat_vvel_min             =  -1.2845575252078E-01
(PID.TID 0000.0001) %MON dynstat_vvel_mean            =  -4.4198067496830E-08
(PID.TID 0000.0001) %MON dynstat_vvel_sd              =   5.0636062018481E-02
(PID.TID 0000.0001) %MON dynstat_vvel_del2            =   1.3008213763927E-06
(PID.TID 0000.0001) %MON dynstat_wvel_max             =   4.6800114377402E-09
(PID.TID 0000.0001) %MON dynstat_wvel_min             =  -6.7264655744657E-09
(PID.TID 0000.0001) %MON dynstat_wvel_mean            =  -1.5767481513638E-21
(PID.TID 0000.0001) %MON dynstat_wvel_sd              =   1.7726658798167E-09
(PID.TID 0000.0001) %MON dynstat_wvel_del2            =   2.1236610686123E-14
(PID.TID 0000.0001) %MON dynstat_theta_max            =   2.0000000000000E+01
(PID.TID 0000.0001) %MON dynstat_theta_min            =   2.0000000000000E+01
(PID.TID 0000.0001) %MON dynstat_theta_mean           =   1.9999999999999E+01
(PID.TID 0000.0001) %MON dynstat_theta_sd             =   1.1972645097557E-12
(PID.TID 0000.0001) %MON dynstat_theta_del2           =   0.0000000000000E+00
(PID.TID 0000.0001) %MON dynstat_salt_max             =   3.0000000000000E+01
(PID.TID 0000.0001) %MON dynstat_salt_min             =   3.0000000000000E+01
(PID.TID 0000.0001) %MON dynstat_salt_mean            =   2.9999999999998E+01
(PID.TID 0000.0001) %MON dynstat_salt_sd              =   2.1529444893531E-12
(PID.TID 0000.0001) %MON dynstat_salt_del2            =   0.0000000000000E+00
(PID.TID 0000.0001) %MON trAdv_CFL_u_max              =   3.2957085429387E-02
(PID.TID 0000.0001) %MON trAdv_CFL_v_max              =   4.0727782677538E-02
(PID.TID 0000.0001) %MON trAdv_CFL_w_max              =   1.2027791649974E-09
(PID.TID 0000.0001) %MON advcfl_uvel_max              =   3.2957640937047E-02
(PID.TID 0000.0001) %MON advcfl_vvel_max              =   4.0728614355809E-02
(PID.TID 0000.0001) %MON advcfl_wvel_max              =   3.2287034757435E-09
(PID.TID 0000.0001) %MON advcfl_W_hf_max              =   0.0000000000000E+00
(PID.TID 0000.0001) %MON pe_b_mean                    =   1.6172849287286E-05
(PID.TID 0000.0001) %MON ke_max                       =   1.4396048257230E-02
(PID.TID 0000.0001) %MON ke_mean                      =   2.6490624219809E-03
(PID.TID 0000.0001) %MON ke_vol                       =   7.2529629296391E+15
(PID.TID 0000.0001) %MON vort_r_min                   =  -4.4867380429379E-06
(PID.TID 0000.0001) %MON vort_r_max                   =   3.5362993934735E-06
(PID.TID 0000.0001) %MON vort_a_mean                  =   1.0615000000000E-04
(PID.TID 0000.0001) %MON vort_a_sd                    =   3.6487725782576E-06
(PID.TID 0000.0001) %MON vort_p_mean                  =   1.1210870169429E-04
(PID.TID 0000.0001) %MON vort_p_sd                    =   2.1073095136357E-05
(PID.TID 0000.0001) %MON surfExpan_theta_mean         =  -3.1649618333478E-20
(PID.TID 0000.0001) %MON surfExpan_salt_mean          =  -4.7484346637357E-20
(PID.TID 0000.0001) // =======================================================
(PID.TID 0000.0001) // End MONITOR dynamic field statistics
(PID.TID 0000.0001) // =======================================================
 cg2d: Sum(rhs),rhsMax =   5.83466746823081E-03  1.36964394626872E-02
 cg2d: Sum(rhs),rhsMax =   5.83561705575040E-03  1.36965397543155E-02
 cg2d: Sum(rhs),rhsMax =   5.83656721310531E-03  1.36966399709953E-02
 cg2d: Sum(rhs),rhsMax =   5.83751792985447E-03  1.36967401099811E-02
 cg2d: Sum(rhs),rhsMax =   5.83846920520801E-03  1.36968401742005E-02
 cg2d: Sum(rhs),rhsMax =   5.83942104125285E-03  1.36969401610940E-02
 cg2d: Sum(rhs),rhsMax =   5.84037350121977E-03  1.36970400725236E-02
 cg2d: Sum(rhs),rhsMax =   5.84132644102267E-03  1.36971399061836E-02
 cg2d: Sum(rhs),rhsMax =   5.84227998966662E-03  1.36972396647313E-02
 cg2d: Sum(rhs),rhsMax =   5.84323393719930E-03  1.36973393462268E-02
 cg2d: Sum(rhs),rhsMax =   5.84418847752794E-03  1.36974389513894E-02
 cg2d: Sum(rhs),rhsMax =   5.84514357865250E-03  1.36975384789725E-02
 cg2d: Sum(rhs),rhsMax =   5.84609919848934E-03  1.36976379310609E-02
 cg2d: Sum(rhs),rhsMax =   5.84705530921590E-03  1.36977373055665E-02
 cg2d: Sum(rhs),rhsMax =   5.84801193272668E-03  1.36978366039751E-02
 cg2d: Sum(rhs),rhsMax =   5.84896859510161E-03  1.36979358243136E-02
 cg2d: Sum(rhs),rhsMax =   5.84992613140556E-03  1.36980349693566E-02
 cg2d: Sum(rhs),rhsMax =   5.85088407326835E-03  1.36981340365536E-02
 cg2d: Sum(rhs),rhsMax =   5.85184263268467E-03  1.36982330274937E-02
 cg2d: Sum(rhs),rhsMax =   5.85280138208238E-03  1.36983319407582E-02
 cg2d: Sum(rhs),rhsMax =   5.85376079052905E-03  1.36984307777625E-02
 cg2d: Sum(rhs),rhsMax =   5.85472057992244E-03  1.36985295368608E-02
 cg2d: Sum(rhs),rhsMax =   5.85568096662870E-03  1.36986282196526E-02
 cg2d: Sum(rhs),rhsMax =   5.85664174694677E-03  1.36987268240325E-02
 cg2d: Sum(rhs),rhsMax =   5.85760286053141E-03  1.36988253525496E-02
 cg2d: Sum(rhs),rhsMax =   5.85850904115384E-03  1.36989238083330E-02
 cg2d: Sum(rhs),rhsMax =   5.85947088848523E-03  1.36990221757983E-02
 cg2d: Sum(rhs),rhsMax =   5.86043298627864E-03  1.36991204723361E-02
 cg2d: Sum(rhs),rhsMax =   5.86134040296702E-03  1.36992186962364E-02
 cg2d: Sum(rhs),rhsMax =   5.86224807884234E-03  1.36993168377098E-02
 cg2d: Sum(rhs),rhsMax =   5.86315615520582E-03  1.36994149013562E-02
 cg2d: Sum(rhs),rhsMax =   5.86406470771359E-03  1.36995128870335E-02
 cg2d: Sum(rhs),rhsMax =   5.86497348023060E-03  1.36996107949393E-02
 cg2d: Sum(rhs),rhsMax =   5.86588276000477E-03  1.36997086261921E-02
 cg2d: Sum(rhs),rhsMax =   5.86679229598920E-03  1.36998063802836E-02
 cg2d: Sum(rhs),rhsMax =   5.86770230715166E-03  1.36999040553676E-02
 cg2d: Sum(rhs),rhsMax =   5.86861264217159E-03  1.37000016526244E-02
 cg2d: Sum(rhs),rhsMax =   5.86952320343124E-03  1.37000991729650E-02
 cg2d: Sum(rhs),rhsMax =   5.87043441374925E-03  1.37001966159508E-02
 cg2d: Sum(rhs),rhsMax =   5.87134585673503E-03  1.37002939802753E-02
 cg2d: Sum(rhs),rhsMax =   5.87225750156090E-03  1.37003912672425E-02
 cg2d: Sum(rhs),rhsMax =   5.87316961829102E-03  1.37004884753223E-02
 cg2d: Sum(rhs),rhsMax =   5.87408220433428E-03  1.37005856060229E-02
 cg2d: Sum(rhs),rhsMax =   5.87499506077285E-03  1.37006826586699E-02
 cg2d: Sum(rhs),rhsMax =   5.87590821445594E-03  1.37007796332838E-02
 cg2d: Sum(rhs),rhsMax =   5.87682159235008E-03  1.37008765305316E-02
 cg2d: Sum(rhs),rhsMax =   5.87773540818363E-03  1.37009733496769E-02
 cg2d: Sum(rhs),rhsMax =   5.87864938058508E-03  1.37010700897245E-02
 cg2d: Sum(rhs),rhsMax =   5.87956363826224E-03  1.37011667516588E-02
 cg2d: Sum(rhs),rhsMax =   5.88047815482317E-03  1.37012633359009E-02
 cg2d: Sum(rhs),rhsMax =   5.88139297789198E-03  1.37013598414014E-02
 cg2d: Sum(rhs),rhsMax =   5.88230811009855E-03  1.37014562691841E-02
 cg2d: Sum(rhs),rhsMax =   5.88322341163122E-03  1.37015526185027E-02
 cg2d: Sum(rhs),rhsMax =   5.88413926204100E-03  1.37016488899735E-02
 cg2d: Sum(rhs),rhsMax =   5.88505530429204E-03  1.37017450824826E-02
 cg2d: Sum(rhs),rhsMax =   5.88597153822758E-03  1.37018411967889E-02
 cg2d: Sum(rhs),rhsMax =   5.88688806438451E-03  1.37019372323903E-02
 cg2d: Sum(rhs),rhsMax =   5.88780489579695E-03  1.37020331902268E-02
 cg2d: Sum(rhs),rhsMax =   5.88872205498435E-03  1.37021290690120E-02
 cg2d: Sum(rhs),rhsMax =   5.88963924512768E-03  1.37022248696478E-02
 cg2d: Sum(rhs),rhsMax =   5.89055674386594E-03  1.37023205913623E-02
 cg2d: Sum(rhs),rhsMax =   5.89147448933822E-03  1.37024162349166E-02
 cg2d: Sum(rhs),rhsMax =   5.89239254241555E-03  1.37025117992463E-02
 cg2d: Sum(rhs),rhsMax =   5.89331071620475E-03  1.37026072851675E-02
 cg2d: Sum(rhs),rhsMax =   5.89422922378775E-03  1.37027026925898E-02
 cg2d: Sum(rhs),rhsMax =   5.89514779525293E-03  1.37027980216996E-02
 cg2d: Sum(rhs),rhsMax =   5.89606669870569E-03  1.37028932716032E-02
 cg2d: Sum(rhs),rhsMax =   5.89698581541452E-03  1.37029884431507E-02
 cg2d: Sum(rhs),rhsMax =   5.89790514004844E-03  1.37030835355776E-02
 cg2d: Sum(rhs),rhsMax =   5.89882452523281E-03  1.37031785493615E-02
 cg2d: Sum(rhs),rhsMax =   5.89974410195200E-03  1.37032734839117E-02
 cg2d: Sum(rhs),rhsMax =   5.90066387174375E-03  1.37033683403876E-02
(PID.TID 0000.0001)      cg2d_init_res =   1.11010960897225E-03
(PID.TID 0000.0001)      cg2d_iters(min,last) =      -1     342
(PID.TID 0000.0001)      cg2d_last_res =   9.71236335539225E-08
(PID.TID 0000.0001) // =======================================================
(PID.TID 0000.0001) // Begin MONITOR dynamic field statistics
(PID.TID 0000.0001) // =======================================================
(PID.TID 0000.0001) %MON time_tsnumber                =                 21240
(PID.TID 0000.0001) %MON time_secondsf                =   2.5488000000000E+07
(PID.TID 0000.0001) %MON dynstat_eta_max              =   1.4008602664771E-01
(PID.TID 0000.0001) %MON dynstat_eta_min              =  -3.6702719840129E-01
(PID.TID 0000.0001) %MON dynstat_eta_mean             =  -3.8485317366075E-07
(PID.TID 0000.0001) %MON dynstat_eta_sd               =   1.2584622082636E-01
(PID.TID 0000.0001) %MON dynstat_eta_del2             =   7.5609248434341E-07
(PID.TID 0000.0001) %MON dynstat_uvel_max             =   1.3748380585176E-01
(PID.TID 0000.0001) %MON dynstat_uvel_min             =  -1.3462113884209E-01
(PID.TID 0000.0001) %MON dynstat_uvel_mean            =  -1.3832844076090E-08
(PID.TID 0000.0001) %MON dynstat_uvel_sd              =   5.2569966523566E-02
(PID.TID 0000.0001) %MON dynstat_uvel_del2            =   1.1229676310014E-06
(PID.TID 0000.0001) %MON dynstat_vvel_max             =   1.6995473637164E-01
(PID.TID 0000.0001) %MON dynstat_vvel_min             =  -1.2849955060674E-01
(PID.TID 0000.0001) %MON dynstat_vvel_mean            =  -4.2379196054581E-08
(PID.TID 0000.0001) %MON dynstat_vvel_sd              =   5.0683152342762E-02
(PID.TID 0000.0001) %MON dynstat_vvel_del2            =   1.3011799172442E-06
(PID.TID 0000.0001) %MON dynstat_wvel_max             =   4.6911314199679E-09
(PID.TID 0000.0001) %MON dynstat_wvel_min             =  -6.7206040397286E-09
(PID.TID 0000.0001) %MON dynstat_wvel_mean            =  -1.0657517153673E-20
(PID.TID 0000.0001) %MON dynstat_wvel_sd              =   1.7671070869770E-09
(PID.TID 0000.0001) %MON dynstat_wvel_del2            =   2.1011560382950E-14
(PID.TID 0000.0001) %MON dynstat_theta_max            =   2.0000000000000E+01
(PID.TID 0000.0001) %MON dynstat_theta_min            =   2.0000000000000E+01
(PID.TID 0000.0001) %MON dynstat_theta_mean           =   1.9999999999999E+01
(PID.TID 0000.0001) %MON dynstat_theta_sd             =   1.1972645097557E-12
(PID.TID 0000.0001) %MON dynstat_theta_del2           =   0.0000000000000E+00
(PID.TID 0000.0001) %MON dynstat_salt_max             =   3.0000000000000E+01
(PID.TID 0000.0001) %MON dynstat_salt_min             =   3.0000000000000E+01
(PID.TID 0000.0001) %MON dynstat_salt_mean            =   2.9999999999998E+01
(PID.TID 0000.0001) %MON dynstat_salt_sd              =   2.1529444893531E-12
(PID.TID 0000.0001) %MON dynstat_salt_del2            =   0.0000000000000E+00
(PID.TID 0000.0001) %MON trAdv_CFL_u_max              =   3.2995600326130E-02
(PID.TID 0000.0001) %MON trAdv_CFL_v_max              =   4.0788289273999E-02
(PID.TID 0000.0001) %MON trAdv_CFL_w_max              =   1.2034746582292E-09
(PID.TID 0000.0001) %MON advcfl_uvel_max              =   3.2996113404423E-02
(PID.TID 0000.0001) %MON advcfl_vvel_max              =   4.0789136729193E-02
(PID.TID 0000.0001) %MON advcfl_wvel_max              =   3.2258899390697E-09
(PID.TID 0000.0001) %MON advcfl_W_hf_max              =   0.0000000000000E+00
(PID.TID 0000.0001) %MON pe_b_mean                    =   1.6203697733769E-05
(PID.TID 0000.0001) %MON ke_max                       =   1.4438961609172E-02
(PID.TID 0000.0001) %MON ke_mean                      =   2.6541901125280E-03
(PID.TID 0000.0001) %MON ke_vol                       =   7.2529629296391E+15
(PID.TID 0000.0001) %MON vort_r_min                   =  -4.4886978066524E-06
(PID.TID 0000.0001) %MON vort_r_max                   =   3.5364233978105E-06
(PID.TID 0000.0001) %MON vort_a_mean                  =   1.0615000000000E-04
(PID.TID 0000.0001) %MON vort_a_sd                    =   3.6488860088384E-06
(PID.TID 0000.0001) %MON vort_p_mean                  =   1.1210870169429E-04
(PID.TID 0000.0001) %MON vort_p_sd                    =   2.1073139418173E-05
(PID.TID 0000.0001) %MON surfExpan_theta_mean         =  -2.1325087655295E-19
(PID.TID 0000.0001) %MON surfExpan_salt_mean          =  -3.1986614207799E-19
(PID.TID 0000.0001) // =======================================================
(PID.TID 0000.0001) // End MONITOR dynamic field statistics
(PID.TID 0000.0001) // =======================================================
 cg2d: Sum(rhs),rhsMax =   5.90158396216503E-03  1.37034631176866E-02
 cg2d: Sum(rhs),rhsMax =   5.90250419362972E-03  1.37035578164586E-02
 cg2d: Sum(rhs),rhsMax =   5.90342456331271E-03  1.37036524354733E-02
 cg2d: Sum(rhs),rhsMax =   5.90434498681620E-03  1.37037469757391E-02
 cg2d: Sum(rhs),rhsMax =   5.90526571710506E-03  1.37038414369920E-02
 cg2d: Sum(rhs),rhsMax =   5.90618649594046E-03  1.37039358200519E-02
 cg2d: Sum(rhs),rhsMax =   5.90710746352848E-03  1.37040301234180E-02
 cg2d: Sum(rhs),rhsMax =   5.90802856009496E-03  1.37041243481914E-02
 cg2d: Sum(rhs),rhsMax =   5.90894978138088E-03  1.37042184935851E-02
 cg2d: Sum(rhs),rhsMax =   5.90987113110205E-03  1.37043125601841E-02
 cg2d: Sum(rhs),rhsMax =   5.91079258152495E-03  1.37044065472091E-02
 cg2d: Sum(rhs),rhsMax =   5.91171421529399E-03  1.37045004553702E-02
 cg2d: Sum(rhs),rhsMax =   5.91263583017693E-03  1.37045942843243E-02
 cg2d: Sum(rhs),rhsMax =   5.91355748709598E-03  1.37046880344839E-02
 cg2d: Sum(rhs),rhsMax =   5.91447941556858E-03  1.37047817045065E-02
 cg2d: Sum(rhs),rhsMax =   5.91540135824154E-03  1.37048752963618E-02
 cg2d: Sum(rhs),rhsMax =   5.91632343585845E-03  1.37049688086942E-02
 cg2d: Sum(rhs),rhsMax =   5.91724558664670E-03  1.37050622426420E-02
 cg2d: Sum(rhs),rhsMax =   5.91816776665330E-03  1.37051555964433E-02
 cg2d: Sum(rhs),rhsMax =   5.91909013164559E-03  1.37052488710963E-02
 cg2d: Sum(rhs),rhsMax =   5.92001241554551E-03  1.37053420656867E-02
 cg2d: Sum(rhs),rhsMax =   5.92093490287237E-03  1.37054351822298E-02
 cg2d: Sum(rhs),rhsMax =   5.92185735066353E-03  1.37055282188805E-02
 cg2d: Sum(rhs),rhsMax =   5.92277982510031E-03  1.37056211762469E-02
 cg2d: Sum(rhs),rhsMax =   5.92370237980101E-03  1.37057140537242E-02
 cg2d: Sum(rhs),rhsMax =   5.92462485768806E-03  1.37058068529035E-02
 cg2d: Sum(rhs),rhsMax =   5.92554748037793E-03  1.37058995725050E-02
 cg2d: Sum(rhs),rhsMax =   5.92646997917707E-03  1.37059922127490E-02
 cg2d: Sum(rhs),rhsMax =   5.92739248194577E-03  1.37060847729480E-02
 cg2d: Sum(rhs),rhsMax =   5.92831508341708E-03  1.37061772543748E-02
 cg2d: Sum(rhs),rhsMax =   5.92923771074705E-03  1.37062696558721E-02
 cg2d: Sum(rhs),rhsMax =   5.93016038377939E-03  1.37063619782186E-02
 cg2d: Sum(rhs),rhsMax =   5.93108308659542E-03  1.37064542206748E-02
 cg2d: Sum(rhs),rhsMax =   5.93200578078180E-03  1.37065463843765E-02
 cg2d: Sum(rhs),rhsMax =   5.93292786811778E-03  1.37066384682208E-02
 cg2d: Sum(rhs),rhsMax =   5.93385036095412E-03  1.37067304725068E-02
 cg2d: Sum(rhs),rhsMax =   5.93477274996656E-03  1.37068223970613E-02
 cg2d: Sum(rhs),rhsMax =   5.93569518410604E-03  1.37069142428970E-02
 cg2d: Sum(rhs),rhsMax =   5.93661770827817E-03  1.37070060088160E-02
 cg2d: Sum(rhs),rhsMax =   5.93753994374428E-03  1.37070976953381E-02
 cg2d: Sum(rhs),rhsMax =   5.93846233513744E-03  1.37071893020750E-02
 cg2d: Sum(rhs),rhsMax =   5.93938443334838E-03  1.37072808297288E-02
 cg2d: Sum(rhs),rhsMax =   5.94030658781805E-03  1.37073722771675E-02
 cg2d: Sum(rhs),rhsMax =   5.94122860151063E-03  1.37074636453878E-02
 cg2d: Sum(rhs),rhsMax =   5.94215048381138E-03  1.37075549338945E-02
 cg2d: Sum(rhs),rhsMax =   5.94307235817396E-03  1.37076461434852E-02
 cg2d: Sum(rhs),rhsMax =   5.94399402565502E-03  1.37077372727569E-02
 cg2d: Sum(rhs),rhsMax =   5.94491556505828E-03  1.37078283226723E-02
 cg2d: Sum(rhs),rhsMax =   5.94583698155793E-03  1.37079192925726E-02
 cg2d: Sum(rhs),rhsMax =   5.94675821574248E-03  1.37080101837448E-02
 cg2d: Sum(rhs),rhsMax =   5.94767944146836E-03  1.37081009950643E-02
 cg2d: Sum(rhs),rhsMax =   5.94860034214504E-03  1.37081917264345E-02
 cg2d: Sum(rhs),rhsMax =   5.94952115997496E-03  1.37082823783799E-02
 cg2d: Sum(rhs),rhsMax =   5.95044177328780E-03  1.37083729511621E-02
 cg2d: Sum(rhs),rhsMax =   5.95136237198604E-03  1.37084634435043E-02
 cg2d: Sum(rhs),rhsMax =   5.95228288061166E-03  1.37085538565767E-02
 cg2d: Sum(rhs),rhsMax =   5.95320304991157E-03  1.37086441899342E-02
 cg2d: Sum(rhs),rhsMax =   5.95412312805099E-03  1.37087344438821E-02
 cg2d: Sum(rhs),rhsMax =   5.95504301319954E-03  1.37088246179597E-02
 cg2d: Sum(rhs),rhsMax =   5.95596237825439E-03  1.37089147134082E-02
 cg2d: Sum(rhs),rhsMax =   5.95688176136327E-03  1.37090047276348E-02
 cg2d: Sum(rhs),rhsMax =   5.95780096385052E-03  1.37090946629338E-02
 cg2d: Sum(rhs),rhsMax =   5.95872002040430E-03  1.37091845186143E-02
 cg2d: Sum(rhs),rhsMax =   5.95963874800548E-03  1.37092742947809E-02
 cg2d: Sum(rhs),rhsMax =   5.96055728582114E-03  1.37093639913176E-02
 cg2d: Sum(rhs),rhsMax =   5.96147533449697E-03  1.37094536081852E-02
 cg2d: Sum(rhs),rhsMax =   5.96239328958312E-03  1.37095431450870E-02
 cg2d: Sum(rhs),rhsMax =   5.96331099826513E-03  1.37096326030996E-02
 cg2d: Sum(rhs),rhsMax =   5.96422843732403E-03  1.37097219806538E-02
 cg2d: Sum(rhs),rhsMax =   5.96514564108785E-03  1.37098112793291E-02
 cg2d: Sum(rhs),rhsMax =   5.96606252634819E-03  1.37099004976065E-02
 cg2d: Sum(rhs),rhsMax =   5.96697890170354E-03  1.37099896364698E-02
(PID.TID 0000.0001)      cg2d_init_res =   1.09860890260378E-03
(PID.TID 0000.0001)      cg2d_iters(min,last) =      -1     342
(PID.TID 0000.0001)      cg2d_last_res =   9.64204197491919E-08
(PID.TID 0000.0001) // =======================================================
(PID.TID 0000.0001) // Begin MONITOR dynamic field statistics
(PID.TID 0000.0001) // =======================================================
(PID.TID 0000.0001) %MON time_tsnumber                =                 21312
(PID.TID 0000.0001) %MON time_secondsf                =   2.5574400000000E+07
(PID.TID 0000.0001) %MON dynstat_eta_max              =   1.4014596175726E-01
(PID.TID 0000.0001) %MON dynstat_eta_min              =  -3.6753875519225E-01
(PID.TID 0000.0001) %MON dynstat_eta_mean             =  -3.8936533099132E-07
(PID.TID 0000.0001) %MON dynstat_eta_sd               =   1.2596625240018E-01
(PID.TID 0000.0001) %MON dynstat_eta_del2             =   7.5656563580230E-07
(PID.TID 0000.0001) %MON dynstat_uvel_max             =   1.3763084271563E-01
(PID.TID 0000.0001) %MON dynstat_uvel_min             =  -1.3476642246153E-01
(PID.TID 0000.0001) %MON dynstat_uvel_mean            =  -1.8866204854845E-08
(PID.TID 0000.0001) %MON dynstat_uvel_sd              =   5.2620645670142E-02
(PID.TID 0000.0001) %MON dynstat_uvel_del2            =   1.1233746593798E-06
(PID.TID 0000.0001) %MON dynstat_vvel_max             =   1.7020908679969E-01
(PID.TID 0000.0001) %MON dynstat_vvel_min             =  -1.2853572093723E-01
(PID.TID 0000.0001) %MON dynstat_vvel_mean            =  -3.9612125899945E-08
(PID.TID 0000.0001) %MON dynstat_vvel_sd              =   5.0732158532555E-02
(PID.TID 0000.0001) %MON dynstat_vvel_del2            =   1.3017741635735E-06
(PID.TID 0000.0001) %MON dynstat_wvel_max             =   4.6433840924874E-09
(PID.TID 0000.0001) %MON dynstat_wvel_min             =  -6.7026523919776E-09
(PID.TID 0000.0001) %MON dynstat_wvel_mean            =   6.2201585730662E-21
(PID.TID 0000.0001) %MON dynstat_wvel_sd              =   1.7614808472059E-09
(PID.TID 0000.0001) %MON dynstat_wvel_del2            =   2.0807495722909E-14
(PID.TID 0000.0001) %MON dynstat_theta_max            =   2.0000000000000E+01
(PID.TID 0000.0001) %MON dynstat_theta_min            =   2.0000000000000E+01
(PID.TID 0000.0001) %MON dynstat_theta_mean           =   1.9999999999999E+01
(PID.TID 0000.0001) %MON dynstat_theta_sd             =   1.1972645097557E-12
(PID.TID 0000.0001) %MON dynstat_theta_del2           =   0.0000000000000E+00
(PID.TID 0000.0001) %MON dynstat_salt_max             =   3.0000000000000E+01
(PID.TID 0000.0001) %MON dynstat_salt_min             =   3.0000000000000E+01
(PID.TID 0000.0001) %MON dynstat_salt_mean            =   2.9999999999998E+01
(PID.TID 0000.0001) %MON dynstat_salt_sd              =   2.1529444893531E-12
(PID.TID 0000.0001) %MON dynstat_salt_del2            =   0.0000000000000E+00
(PID.TID 0000.0001) %MON trAdv_CFL_u_max              =   3.3030934843938E-02
(PID.TID 0000.0001) %MON trAdv_CFL_v_max              =   4.0849332442681E-02
(PID.TID 0000.0001) %MON trAdv_CFL_w_max              =   1.1904712812184E-09
(PID.TID 0000.0001) %MON advcfl_uvel_max              =   3.3031402251750E-02
(PID.TID 0000.0001) %MON advcfl_vvel_max              =   4.0850180831926E-02
(PID.TID 0000.0001) %MON advcfl_wvel_max              =   3.2172731481493E-09
(PID.TID 0000.0001) %MON advcfl_W_hf_max              =   0.0000000000000E+00
(PID.TID 0000.0001) %MON pe_b_mean                    =   1.6234622506447E-05
(PID.TID 0000.0001) %MON ke_max                       =   1.4481962081643E-02
(PID.TID 0000.0001) %MON ke_mean                      =   2.6593174024966E-03
(PID.TID 0000.0001) %MON ke_vol                       =   7.2529629296391E+15
(PID.TID 0000.0001) %MON vort_r_min                   =  -4.4905308220789E-06
(PID.TID 0000.0001) %MON vort_r_max                   =   3.5374682017595E-06
(PID.TID 0000.0001) %MON vort_a_mean                  =   1.0615000000000E-04
(PID.TID 0000.0001) %MON vort_a_sd                    =   3.6490007414488E-06
(PID.TID 0000.0001) %MON vort_p_mean                  =   1.1210870169429E-04
(PID.TID 0000.0001) %MON vort_p_sd                    =   2.1073186738242E-05
(PID.TID 0000.0001) %MON surfExpan_theta_mean         =   1.2432058951599E-19
(PID.TID 0000.0001) %MON surfExpan_salt_mean          =   1.8647021368706E-19
(PID.TID 0000.0001) // =======================================================
(PID.TID 0000.0001) // End MONITOR dynamic field statistics
(PID.TID 0000.0001) // =======================================================
 cg2d: Sum(rhs),rhsMax =   5.96789516844093E-03  1.37100786957132E-02
 cg2d: Sum(rhs),rhsMax =   5.96881107521554E-03  1.37101676760342E-02
 cg2d: Sum(rhs),rhsMax =   5.96972672898425E-03  1.37102565762457E-02
 cg2d: Sum(rhs),rhsMax =   5.97064210572962E-03  1.37103453971796E-02
 cg2d: Sum(rhs),rhsMax =   5.97160808197725E-03  1.37104341363116E-02
 cg2d: Sum(rhs),rhsMax =   5.97252266458248E-03  1.37105227995791E-02
 cg2d: Sum(rhs),rhsMax =   5.97348773237348E-03  1.37106113792410E-02
 cg2d: Sum(rhs),rhsMax =   5.97445259201765E-03  1.37106998813671E-02
 cg2d: Sum(rhs),rhsMax =   5.97541718360301E-03  1.37107883039760E-02
 cg2d: Sum(rhs),rhsMax =   5.97638124788899E-03  1.37108766473086E-02
 cg2d: Sum(rhs),rhsMax =   5.97734485678772E-03  1.37109649107305E-02
 cg2d: Sum(rhs),rhsMax =   5.97830784739975E-03  1.37110530947216E-02
 cg2d: Sum(rhs),rhsMax =   5.97927030887571E-03  1.37111411997870E-02
 cg2d: Sum(rhs),rhsMax =   5.98023249566569E-03  1.37112292246292E-02
 cg2d: Sum(rhs),rhsMax =   5.98119427375130E-03  1.37113171696914E-02
 cg2d: Sum(rhs),rhsMax =   5.98215537296903E-03  1.37114050356961E-02
 cg2d: Sum(rhs),rhsMax =   5.98311609257657E-03  1.37114928220974E-02
 cg2d: Sum(rhs),rhsMax =   5.98407637286486E-03  1.37115805293480E-02
 cg2d: Sum(rhs),rhsMax =   5.98503606424372E-03  1.37116681567756E-02
 cg2d: Sum(rhs),rhsMax =   5.98599523780327E-03  1.37117557044192E-02
 cg2d: Sum(rhs),rhsMax =   5.98695371817936E-03  1.37118431727556E-02
 cg2d: Sum(rhs),rhsMax =   5.98791171085649E-03  1.37119305620816E-02
 cg2d: Sum(rhs),rhsMax =   5.98886926127162E-03  1.37120178710969E-02
 cg2d: Sum(rhs),rhsMax =   5.98982615021985E-03  1.37121051014452E-02
 cg2d: Sum(rhs),rhsMax =   5.99078243494388E-03  1.37121922520406E-02
 cg2d: Sum(rhs),rhsMax =   5.99173811453318E-03  1.37122793239472E-02
 cg2d: Sum(rhs),rhsMax =   5.99269310960208E-03  1.37123663156219E-02
 cg2d: Sum(rhs),rhsMax =   5.99364769899038E-03  1.37124532279894E-02
 cg2d: Sum(rhs),rhsMax =   5.99460164738968E-03  1.37125400609583E-02
 cg2d: Sum(rhs),rhsMax =   5.99555507025563E-03  1.37126268150440E-02
 cg2d: Sum(rhs),rhsMax =   5.99650770273064E-03  1.37127134896683E-02
 cg2d: Sum(rhs),rhsMax =   5.99745976908299E-03  1.37128000842836E-02
 cg2d: Sum(rhs),rhsMax =   5.99841114117870E-03  1.37128865995086E-02
 cg2d: Sum(rhs),rhsMax =   5.99936175427958E-03  1.37129730365833E-02
 cg2d: Sum(rhs),rhsMax =   6.00031186848670E-03  1.37130593933500E-02
 cg2d: Sum(rhs),rhsMax =   6.00126118475349E-03  1.37131456715154E-02
 cg2d: Sum(rhs),rhsMax =   6.00220993837134E-03  1.37132318700208E-02
 cg2d: Sum(rhs),rhsMax =   6.00315793179762E-03  1.37133179900720E-02
 cg2d: Sum(rhs),rhsMax =   6.00410524296418E-03  1.37134040297291E-02
 cg2d: Sum(rhs),rhsMax =   6.00505185912341E-03  1.37134899909364E-02
 cg2d: Sum(rhs),rhsMax =   6.00599759457518E-03  1.37135758727247E-02
 cg2d: Sum(rhs),rhsMax =   6.00694272620216E-03  1.37136616759743E-02
 cg2d: Sum(rhs),rhsMax =   6.00788711098760E-03  1.37137473994384E-02
 cg2d: Sum(rhs),rhsMax =   6.00883079373087E-03  1.37138330442907E-02
 cg2d: Sum(rhs),rhsMax =   6.00977367919527E-03  1.37139186095410E-02
 cg2d: Sum(rhs),rhsMax =   6.01071583697958E-03  1.37140040960035E-02
 cg2d: Sum(rhs),rhsMax =   6.01165699274084E-03  1.37140895032755E-02
 cg2d: Sum(rhs),rhsMax =   6.01259750837485E-03  1.37141748309805E-02
 cg2d: Sum(rhs),rhsMax =   6.01353727772392E-03  1.37142600794353E-02
 cg2d: Sum(rhs),rhsMax =   6.01447615794057E-03  1.37143452501104E-02
 cg2d: Sum(rhs),rhsMax =   6.01541413741329E-03  1.37144303409784E-02
 cg2d: Sum(rhs),rhsMax =   6.01635133552521E-03  1.37145153538451E-02
 cg2d: Sum(rhs),rhsMax =   6.01728783130819E-03  1.37146002872661E-02
 cg2d: Sum(rhs),rhsMax =   6.01822340698205E-03  1.37146851421183E-02
 cg2d: Sum(rhs),rhsMax =   6.01915810633880E-03  1.37147699173271E-02
 cg2d: Sum(rhs),rhsMax =   6.02009178848584E-03  1.37148546135285E-02
 cg2d: Sum(rhs),rhsMax =   6.02102465054359E-03  1.37149392309684E-02
 cg2d: Sum(rhs),rhsMax =   6.02195668605899E-03  1.37150237702725E-02
 cg2d: Sum(rhs),rhsMax =   6.02288788467619E-03  1.37151082300099E-02
 cg2d: Sum(rhs),rhsMax =   6.02381814043882E-03  1.37151926119073E-02
 cg2d: Sum(rhs),rhsMax =   6.02474751104868E-03  1.37152769142658E-02
 cg2d: Sum(rhs),rhsMax =   6.02567596242691E-03  1.37153611388112E-02
 cg2d: Sum(rhs),rhsMax =   6.02660332698813E-03  1.37154452839251E-02
 cg2d: Sum(rhs),rhsMax =   6.02752982531469E-03  1.37155293503713E-02
 cg2d: Sum(rhs),rhsMax =   6.02845532207418E-03  1.37156133382752E-02
 cg2d: Sum(rhs),rhsMax =   6.02937983792265E-03  1.37156972484229E-02
 cg2d: Sum(rhs),rhsMax =   6.03030354123606E-03  1.37157810790283E-02
 cg2d: Sum(rhs),rhsMax =   6.03122594321412E-03  1.37158648315360E-02
 cg2d: Sum(rhs),rhsMax =   6.03214746226354E-03  1.37159485047636E-02
 cg2d: Sum(rhs),rhsMax =   6.03306806153393E-03  1.37160321000998E-02
 cg2d: Sum(rhs),rhsMax =   6.03398764284172E-03  1.37161156165044E-02
 cg2d: Sum(rhs),rhsMax =   6.03490616682266E-03  1.37161990548096E-02
(PID.TID 0000.0001)      cg2d_init_res =   1.08911644776716E-03
(PID.TID 0000.0001)      cg2d_iters(min,last) =      -1     341
(PID.TID 0000.0001)      cg2d_last_res =   9.79080050222503E-08
(PID.TID 0000.0001) // =======================================================
(PID.TID 0000.0001) // Begin MONITOR dynamic field statistics
(PID.TID 0000.0001) // =======================================================
(PID.TID 0000.0001) %MON time_tsnumber                =                 21384
(PID.TID 0000.0001) %MON time_secondsf                =   2.5660800000000E+07
(PID.TID 0000.0001) %MON dynstat_eta_max              =   1.4022826790885E-01
(PID.TID 0000.0001) %MON dynstat_eta_min              =  -3.6805154590199E-01
(PID.TID 0000.0001) %MON dynstat_eta_mean             =  -3.9397540272502E-07
(PID.TID 0000.0001) %MON dynstat_eta_sd               =   1.2608625963917E-01
(PID.TID 0000.0001) %MON dynstat_eta_del2             =   7.5704528641673E-07
(PID.TID 0000.0001) %MON dynstat_uvel_max             =   1.3776391211032E-01
(PID.TID 0000.0001) %MON dynstat_uvel_min             =  -1.3491156499177E-01
(PID.TID 0000.0001) %MON dynstat_uvel_mean            =  -2.2741959311783E-08
(PID.TID 0000.0001) %MON dynstat_uvel_sd              =   5.2669038065966E-02
(PID.TID 0000.0001) %MON dynstat_uvel_del2            =   1.1237208970343E-06
(PID.TID 0000.0001) %MON dynstat_vvel_max             =   1.7046386743309E-01
(PID.TID 0000.0001) %MON dynstat_vvel_min             =  -1.2856680467141E-01
(PID.TID 0000.0001) %MON dynstat_vvel_mean            =  -3.6077184379553E-08
(PID.TID 0000.0001) %MON dynstat_vvel_sd              =   5.0783385598481E-02
(PID.TID 0000.0001) %MON dynstat_vvel_del2            =   1.3025783635816E-06
(PID.TID 0000.0001) %MON dynstat_wvel_max             =   4.5500420965254E-09
(PID.TID 0000.0001) %MON dynstat_wvel_min             =  -6.6757133696228E-09
(PID.TID 0000.0001) %MON dynstat_wvel_mean            =  -1.5583692415949E-20
(PID.TID 0000.0001) %MON dynstat_wvel_sd              =   1.7549651296707E-09
(PID.TID 0000.0001) %MON dynstat_wvel_del2            =   2.0804338942191E-14
(PID.TID 0000.0001) %MON dynstat_theta_max            =   2.0000000000000E+01
(PID.TID 0000.0001) %MON dynstat_theta_min            =   2.0000000000000E+01
(PID.TID 0000.0001) %MON dynstat_theta_mean           =   1.9999999999999E+01
(PID.TID 0000.0001) %MON dynstat_theta_sd             =   1.1972645097557E-12
(PID.TID 0000.0001) %MON dynstat_theta_del2           =   0.0000000000000E+00
(PID.TID 0000.0001) %MON dynstat_salt_max             =   3.0000000000000E+01
(PID.TID 0000.0001) %MON dynstat_salt_min             =   3.0000000000000E+01
(PID.TID 0000.0001) %MON dynstat_salt_mean            =   2.9999999999998E+01
(PID.TID 0000.0001) %MON dynstat_salt_sd              =   2.1529444893531E-12
(PID.TID 0000.0001) %MON dynstat_salt_del2            =   0.0000000000000E+00
(PID.TID 0000.0001) %MON trAdv_CFL_u_max              =   3.3062918618033E-02
(PID.TID 0000.0001) %MON trAdv_CFL_v_max              =   4.0910477944785E-02
(PID.TID 0000.0001) %MON trAdv_CFL_w_max              =   1.1643737474804E-09
(PID.TID 0000.0001) %MON advcfl_uvel_max              =   3.3063338906477E-02
(PID.TID 0000.0001) %MON advcfl_vvel_max              =   4.0911328183942E-02
(PID.TID 0000.0001) %MON advcfl_wvel_max              =   3.2043424174190E-09
(PID.TID 0000.0001) %MON advcfl_W_hf_max              =   0.0000000000000E+00
(PID.TID 0000.0001) %MON pe_b_mean                    =   1.6265570482421E-05
(PID.TID 0000.0001) %MON ke_max                       =   1.4525108430030E-02
(PID.TID 0000.0001) %MON ke_mean                      =   2.6644420121334E-03
(PID.TID 0000.0001) %MON ke_vol                       =   7.2529629296391E+15
(PID.TID 0000.0001) %MON vort_r_min                   =  -4.4922323546116E-06
(PID.TID 0000.0001) %MON vort_r_max                   =   3.5393696216253E-06
(PID.TID 0000.0001) %MON vort_a_mean                  =   1.0615000000000E-04
(PID.TID 0000.0001) %MON vort_a_sd                    =   3.6491165065055E-06
(PID.TID 0000.0001) %MON vort_p_mean                  =   1.1210870169429E-04
(PID.TID 0000.0001) %MON vort_p_sd                    =   2.1073237340356E-05
(PID.TID 0000.0001) %MON surfExpan_theta_mean         =  -3.1166849889827E-19
(PID.TID 0000.0001) %MON surfExpan_salt_mean          =  -4.6750462697186E-19
(PID.TID 0000.0001) // =======================================================
(PID.TID 0000.0001) // End MONITOR dynamic field statistics
(PID.TID 0000.0001) // =======================================================
 cg2d: Sum(rhs),rhsMax =   6.03582364383448E-03  1.37162824143196E-02
 cg2d: Sum(rhs),rhsMax =   6.03674012482200E-03  1.37163656965138E-02
 cg2d: Sum(rhs),rhsMax =   6.03765550121118E-03  1.37164488993019E-02
 cg2d: Sum(rhs),rhsMax =   6.03856980080613E-03  1.37165320243080E-02
 cg2d: Sum(rhs),rhsMax =   6.03948302872003E-03  1.37166150704898E-02
 cg2d: Sum(rhs),rhsMax =   6.04039513785767E-03  1.37166980392275E-02
 cg2d: Sum(rhs),rhsMax =   6.04130622548171E-03  1.37167809289341E-02
 cg2d: Sum(rhs),rhsMax =   6.04221611259682E-03  1.37168637410806E-02
 cg2d: Sum(rhs),rhsMax =   6.04312485157424E-03  1.37169464747411E-02
 cg2d: Sum(rhs),rhsMax =   6.04403249057348E-03  1.37170291308055E-02
 cg2d: Sum(rhs),rhsMax =   6.04493906339443E-03  1.37171117079886E-02
 cg2d: Sum(rhs),rhsMax =   6.04584448710888E-03  1.37171942080179E-02
 cg2d: Sum(rhs),rhsMax =   6.04674878308609E-03  1.37172766289733E-02
 cg2d: Sum(rhs),rhsMax =   6.04765183241365E-03  1.37173589728689E-02
 cg2d: Sum(rhs),rhsMax =   6.04855373281055E-03  1.37174412376105E-02
 cg2d: Sum(rhs),rhsMax =   6.04945435214217E-03  1.37175234252230E-02
 cg2d: Sum(rhs),rhsMax =   6.05035374581987E-03  1.37176055338655E-02
 cg2d: Sum(rhs),rhsMax =   6.05125207980710E-03  1.37176875661248E-02
 cg2d: Sum(rhs),rhsMax =   6.05214906816229E-03  1.37177695201389E-02
 cg2d: Sum(rhs),rhsMax =   6.05304498662627E-03  1.37178513965037E-02
 cg2d: Sum(rhs),rhsMax =   6.05398595200021E-03  1.37179331936555E-02
 cg2d: Sum(rhs),rhsMax =   6.05492538018259E-03  1.37180149135065E-02
 cg2d: Sum(rhs),rhsMax =   6.05586365225806E-03  1.37180965564872E-02
 cg2d: Sum(rhs),rhsMax =   6.05680062517494E-03  1.37181781215174E-02
 cg2d: Sum(rhs),rhsMax =   6.05773633211967E-03  1.37182596103899E-02
 cg2d: Sum(rhs),rhsMax =   6.05867064347308E-03  1.37183410194741E-02
 cg2d: Sum(rhs),rhsMax =   6.05960340196979E-03  1.37184223521018E-02
 cg2d: Sum(rhs),rhsMax =   6.06053480480009E-03  1.37185036074219E-02
 cg2d: Sum(rhs),rhsMax =   6.06146488562862E-03  1.37185847858318E-02
 cg2d: Sum(rhs),rhsMax =   6.06239341164685E-03  1.37186658849461E-02
 cg2d: Sum(rhs),rhsMax =   6.06332067892342E-03  1.37187469085599E-02
 cg2d: Sum(rhs),rhsMax =   6.06424641748661E-03  1.37188278535430E-02
 cg2d: Sum(rhs),rhsMax =   6.06517064985635E-03  1.37189087222496E-02
 cg2d: Sum(rhs),rhsMax =   6.06609357083346E-03  1.37189895120819E-02
 cg2d: Sum(rhs),rhsMax =   6.06701492627509E-03  1.37190702263483E-02
 cg2d: Sum(rhs),rhsMax =   6.06793483404397E-03  1.37191508622593E-02
 cg2d: Sum(rhs),rhsMax =   6.06885331294984E-03  1.37192314229088E-02
 cg2d: Sum(rhs),rhsMax =   6.06977008722228E-03  1.37193119046944E-02
 cg2d: Sum(rhs),rhsMax =   6.07068538365105E-03  1.37193923100314E-02
 cg2d: Sum(rhs),rhsMax =   6.07159926420831E-03  1.37194726380021E-02
 cg2d: Sum(rhs),rhsMax =   6.07251167806383E-03  1.37195528905078E-02
 cg2d: Sum(rhs),rhsMax =   6.07342247627782E-03  1.37196330639257E-02
 cg2d: Sum(rhs),rhsMax =   6.07433178604087E-03  1.37197131617812E-02
 cg2d: Sum(rhs),rhsMax =   6.07523941876469E-03  1.37197931810782E-02
 cg2d: Sum(rhs),rhsMax =   6.07614556689879E-03  1.37198731258051E-02
 cg2d: Sum(rhs),rhsMax =   6.07705012356736E-03  1.37199529922819E-02
 cg2d: Sum(rhs),rhsMax =   6.07795311383273E-03  1.37200327832666E-02
 cg2d: Sum(rhs),rhsMax =   6.07885445422596E-03  1.37201124962751E-02
 cg2d: Sum(rhs),rhsMax =   6.07975425556196E-03  1.37201921341320E-02
 cg2d: Sum(rhs),rhsMax =   6.08065239655279E-03  1.37202716944667E-02
 cg2d: Sum(rhs),rhsMax =   6.08154894920457E-03  1.37203511790366E-02
 cg2d: Sum(rhs),rhsMax =   6.08244388236161E-03  1.37204305857007E-02
 cg2d: Sum(rhs),rhsMax =   6.08333713747619E-03  1.37205099172404E-02
 cg2d: Sum(rhs),rhsMax =   6.08422876747250E-03  1.37205891713140E-02
 cg2d: Sum(rhs),rhsMax =   6.08511872668776E-03  1.37206683503246E-02
 cg2d: Sum(rhs),rhsMax =   6.08600689060210E-03  1.37207474513450E-02
 cg2d: Sum(rhs),rhsMax =   6.08689337138294E-03  1.37208264777753E-02
 cg2d: Sum(rhs),rhsMax =   6.08777829293270E-03  1.37209054271891E-02
 cg2d: Sum(rhs),rhsMax =   6.08866157195623E-03  1.37209843016584E-02
 cg2d: Sum(rhs),rhsMax =   6.08954309913561E-03  1.37210630986921E-02
 cg2d: Sum(rhs),rhsMax =   6.09042296582245E-03  1.37211418196988E-02
 cg2d: Sum(rhs),rhsMax =   6.09130104066262E-03  1.37212204636921E-02
 cg2d: Sum(rhs),rhsMax =   6.09217744189092E-03  1.37212990345186E-02
 cg2d: Sum(rhs),rhsMax =   6.09305206924945E-03  1.37213775273787E-02
 cg2d: Sum(rhs),rhsMax =   6.09392494468421E-03  1.37214559454802E-02
 cg2d: Sum(rhs),rhsMax =   6.09479604642113E-03  1.37215342868743E-02
 cg2d: Sum(rhs),rhsMax =   6.09571073058553E-03  1.37216125553845E-02
 cg2d: Sum(rhs),rhsMax =   6.09662345279285E-03  1.37216907464665E-02
 cg2d: Sum(rhs),rhsMax =   6.09753445622662E-03  1.37217688605973E-02
 cg2d: Sum(rhs),rhsMax =   6.09844326853412E-03  1.37218469001249E-02
 cg2d: Sum(rhs),rhsMax =   6.09935045507969E-03  1.37219248631258E-02
 cg2d: Sum(rhs),rhsMax =   6.10025521727718E-03  1.37220027517143E-02
(PID.TID 0000.0001)      cg2d_init_res =   1.08176418269146E-03
(PID.TID 0000.0001)      cg2d_iters(min,last) =      -1     339
(PID.TID 0000.0001)      cg2d_last_res =   9.95569171726291E-08
(PID.TID 0000.0001) // =======================================================
(PID.TID 0000.0001) // Begin MONITOR dynamic field statistics
(PID.TID 0000.0001) // =======================================================
(PID.TID 0000.0001) %MON time_tsnumber                =                 21456
(PID.TID 0000.0001) %MON time_secondsf                =   2.5747200000000E+07
(PID.TID 0000.0001) %MON dynstat_eta_max              =   1.4033211763450E-01
(PID.TID 0000.0001) %MON dynstat_eta_min              =  -3.6856465042949E-01
(PID.TID 0000.0001) %MON dynstat_eta_mean             =  -3.9840833690246E-07
(PID.TID 0000.0001) %MON dynstat_eta_sd               =   1.2620603090786E-01
(PID.TID 0000.0001) %MON dynstat_eta_del2             =   7.5753029004593E-07
(PID.TID 0000.0001) %MON dynstat_uvel_max             =   1.3788286109525E-01
(PID.TID 0000.0001) %MON dynstat_uvel_min             =  -1.3505639162818E-01
(PID.TID 0000.0001) %MON dynstat_uvel_mean            =  -2.5326433226235E-08
(PID.TID 0000.0001) %MON dynstat_uvel_sd              =   5.2714907193706E-02
(PID.TID 0000.0001) %MON dynstat_uvel_del2            =   1.1240066344316E-06
(PID.TID 0000.0001) %MON dynstat_vvel_max             =   1.7071928640241E-01
(PID.TID 0000.0001) %MON dynstat_vvel_min             =  -1.2859536506599E-01
(PID.TID 0000.0001) %MON dynstat_vvel_mean            =  -3.1982258648110E-08
(PID.TID 0000.0001) %MON dynstat_vvel_sd              =   5.0837020951629E-02
(PID.TID 0000.0001) %MON dynstat_vvel_del2            =   1.3035601837903E-06
(PID.TID 0000.0001) %MON dynstat_wvel_max             =   4.4111515278928E-09
(PID.TID 0000.0001) %MON dynstat_wvel_min             =  -6.6335969185457E-09
(PID.TID 0000.0001) %MON dynstat_wvel_mean            =   6.3757925015017E-21
(PID.TID 0000.0001) %MON dynstat_wvel_sd              =   1.7469873414895E-09
(PID.TID 0000.0001) %MON dynstat_wvel_del2            =   2.0532340076631E-14
(PID.TID 0000.0001) %MON dynstat_theta_max            =   2.0000000000000E+01
(PID.TID 0000.0001) %MON dynstat_theta_min            =   2.0000000000000E+01
(PID.TID 0000.0001) %MON dynstat_theta_mean           =   1.9999999999999E+01
(PID.TID 0000.0001) %MON dynstat_theta_sd             =   1.1972645097557E-12
(PID.TID 0000.0001) %MON dynstat_theta_del2           =   0.0000000000000E+00
(PID.TID 0000.0001) %MON dynstat_salt_max             =   3.0000000000000E+01
(PID.TID 0000.0001) %MON dynstat_salt_min             =   3.0000000000000E+01
(PID.TID 0000.0001) %MON dynstat_salt_mean            =   2.9999999999998E+01
(PID.TID 0000.0001) %MON dynstat_salt_sd              =   2.1529444893531E-12
(PID.TID 0000.0001) %MON dynstat_salt_del2            =   0.0000000000000E+00
(PID.TID 0000.0001) %MON trAdv_CFL_u_max              =   3.3091513086495E-02
(PID.TID 0000.0001) %MON trAdv_CFL_v_max              =   4.0971776173841E-02
(PID.TID 0000.0001) %MON trAdv_CFL_w_max              =   1.1275342207084E-09
(PID.TID 0000.0001) %MON advcfl_uvel_max              =   3.3091886662861E-02
(PID.TID 0000.0001) %MON advcfl_vvel_max              =   4.0972628736578E-02
(PID.TID 0000.0001) %MON advcfl_wvel_max              =   3.1841265209019E-09
(PID.TID 0000.0001) %MON advcfl_W_hf_max              =   0.0000000000000E+00
(PID.TID 0000.0001) %MON pe_b_mean                    =   1.6296486988412E-05
(PID.TID 0000.0001) %MON ke_max                       =   1.4568437467926E-02
(PID.TID 0000.0001) %MON ke_mean                      =   2.6695610233428E-03
(PID.TID 0000.0001) %MON ke_vol                       =   7.2529629296391E+15
(PID.TID 0000.0001) %MON vort_r_min                   =  -4.4938010752271E-06
(PID.TID 0000.0001) %MON vort_r_max                   =   3.5420328495500E-06
(PID.TID 0000.0001) %MON vort_a_mean                  =   1.0615000000000E-04
(PID.TID 0000.0001) %MON vort_a_sd                    =   3.6492329857293E-06
(PID.TID 0000.0001) %MON vort_p_mean                  =   1.1210870169429E-04
(PID.TID 0000.0001) %MON vort_p_sd                    =   2.1073291310784E-05
(PID.TID 0000.0001) %MON surfExpan_theta_mean         =   1.2745266978544E-19
(PID.TID 0000.0001) %MON surfExpan_salt_mean          =   1.9117943676179E-19
(PID.TID 0000.0001) // =======================================================
(PID.TID 0000.0001) // End MONITOR dynamic field statistics
(PID.TID 0000.0001) // =======================================================
 cg2d: Sum(rhs),rhsMax =   6.10115847214454E-03  1.37220805639188E-02
 cg2d: Sum(rhs),rhsMax =   6.10205976802636E-03  1.37221583018037E-02
 cg2d: Sum(rhs),rhsMax =   6.10295915275013E-03  1.37222359628309E-02
 cg2d: Sum(rhs),rhsMax =   6.10385661365161E-03  1.37223135497737E-02
 cg2d: Sum(rhs),rhsMax =   6.10475207777176E-03  1.37223910605382E-02
 cg2d: Sum(rhs),rhsMax =   6.10564563653255E-03  1.37224684970044E-02
 cg2d: Sum(rhs),rhsMax =   6.10653687089623E-03  1.37225458570815E-02
 cg2d: Sum(rhs),rhsMax =   6.10742639506444E-03  1.37226231432798E-02
 cg2d: Sum(rhs),rhsMax =   6.10831394530549E-03  1.37227003537602E-02
 cg2d: Sum(rhs),rhsMax =   6.10919958294929E-03  1.37227774900968E-02
 cg2d: Sum(rhs),rhsMax =   6.11008314938134E-03  1.37228545506448E-02
 cg2d: Sum(rhs),rhsMax =   6.11096476398649E-03  1.37229315370845E-02
 cg2d: Sum(rhs),rhsMax =   6.11184418901743E-03  1.37230084477885E-02
 cg2d: Sum(rhs),rhsMax =   6.11272174969418E-03  1.37230852847710E-02
 cg2d: Sum(rhs),rhsMax =   6.11359676864652E-03  1.37231620465070E-02
 cg2d: Sum(rhs),rhsMax =   6.11447002906241E-03  1.37232387332161E-02
 cg2d: Sum(rhs),rhsMax =   6.11534136264881E-03  1.37233153460652E-02
 cg2d: Sum(rhs),rhsMax =   6.11621064182400E-03  1.37233918835644E-02
 cg2d: Sum(rhs),rhsMax =   6.11707789992156E-03  1.37234683472056E-02
 cg2d: Sum(rhs),rhsMax =   6.11794293606772E-03  1.37235447365297E-02
 cg2d: Sum(rhs),rhsMax =   6.11880589302216E-03  1.37236210514737E-02
 cg2d: Sum(rhs),rhsMax =   6.11966685899433E-03  1.37236972919578E-02
 cg2d: Sum(rhs),rhsMax =   6.12052573296320E-03  1.37237734584922E-02
 cg2d: Sum(rhs),rhsMax =   6.12138246319085E-03  1.37238495502924E-02
 cg2d: Sum(rhs),rhsMax =   6.12223709616996E-03  1.37239255681525E-02
 cg2d: Sum(rhs),rhsMax =   6.12308960970352E-03  1.37240015123505E-02
 cg2d: Sum(rhs),rhsMax =   6.12394005600188E-03  1.37240773823041E-02
 cg2d: Sum(rhs),rhsMax =   6.12478822822931E-03  1.37241531783175E-02
 cg2d: Sum(rhs),rhsMax =   6.12563438057371E-03  1.37242289001763E-02
 cg2d: Sum(rhs),rhsMax =   6.12647823170381E-03  1.37243045487108E-02
 cg2d: Sum(rhs),rhsMax =   6.12732005153682E-03  1.37243801233326E-02
 cg2d: Sum(rhs),rhsMax =   6.12815972590278E-03  1.37244556245406E-02
 cg2d: Sum(rhs),rhsMax =   6.12899726297353E-03  1.37245310514104E-02
 cg2d: Sum(rhs),rhsMax =   6.12983264136287E-03  1.37246064050083E-02
 cg2d: Sum(rhs),rhsMax =   6.13066569355003E-03  1.37246816849911E-02
 cg2d: Sum(rhs),rhsMax =   6.13149670881122E-03  1.37247568914660E-02
 cg2d: Sum(rhs),rhsMax =   6.13232552630940E-03  1.37248320247817E-02
 cg2d: Sum(rhs),rhsMax =   6.13315218342670E-03  1.37249070845403E-02
 cg2d: Sum(rhs),rhsMax =   6.13397659437002E-03  1.37249820711162E-02
 cg2d: Sum(rhs),rhsMax =   6.13479888490750E-03  1.37250569846553E-02
 cg2d: Sum(rhs),rhsMax =   6.13561857830107E-03  1.37251318250051E-02
 cg2d: Sum(rhs),rhsMax =   6.13643633909386E-03  1.37252065923540E-02
 cg2d: Sum(rhs),rhsMax =   6.13725186627563E-03  1.37252812860399E-02
 cg2d: Sum(rhs),rhsMax =   6.13806528329810E-03  1.37253559076473E-02
 cg2d: Sum(rhs),rhsMax =   6.13887637770086E-03  1.37254304559555E-02
 cg2d: Sum(rhs),rhsMax =   6.13968528628335E-03  1.37255049315809E-02
 cg2d: Sum(rhs),rhsMax =   6.14049191541554E-03  1.37255793343521E-02
 cg2d: Sum(rhs),rhsMax =   6.14129634864581E-03  1.37256536645173E-02
 cg2d: Sum(rhs),rhsMax =   6.14209851042828E-03  1.37257279221024E-02
 cg2d: Sum(rhs),rhsMax =   6.14289839413383E-03  1.37258021067987E-02
 cg2d: Sum(rhs),rhsMax =   6.14369603446004E-03  1.37258762191272E-02
 cg2d: Sum(rhs),rhsMax =   6.14449126341521E-03  1.37259502590440E-02
 cg2d: Sum(rhs),rhsMax =   6.14528438932343E-03  1.37260242263267E-02
 cg2d: Sum(rhs),rhsMax =   6.14607504007847E-03  1.37260981222425E-02
 cg2d: Sum(rhs),rhsMax =   6.14686353473667E-03  1.37261719445726E-02
 cg2d: Sum(rhs),rhsMax =   6.14764983670131E-03  1.37262456957367E-02
 cg2d: Sum(rhs),rhsMax =   6.14843384711062E-03  1.37263193742405E-02
 cg2d: Sum(rhs),rhsMax =   6.14921560738367E-03  1.37263929814194E-02
 cg2d: Sum(rhs),rhsMax =   6.14999502680385E-03  1.37264665151849E-02
 cg2d: Sum(rhs),rhsMax =   6.15077222797339E-03  1.37265399784853E-02
 cg2d: Sum(rhs),rhsMax =   6.15154697999819E-03  1.37266133690007E-02
 cg2d: Sum(rhs),rhsMax =   6.15231953538892E-03  1.37266866887146E-02
 cg2d: Sum(rhs),rhsMax =   6.15308970262046E-03  1.37267599353054E-02
 cg2d: Sum(rhs),rhsMax =   6.15385768896684E-03  1.37268331118704E-02
 cg2d: Sum(rhs),rhsMax =   6.15462321215102E-03  1.37269062156538E-02
 cg2d: Sum(rhs),rhsMax =   6.15542752600631E-03  1.37269792450565E-02
 cg2d: Sum(rhs),rhsMax =   6.15622920462769E-03  1.37270522059906E-02
 cg2d: Sum(rhs),rhsMax =   6.15702857047005E-03  1.37271250966164E-02
 cg2d: Sum(rhs),rhsMax =   6.15782549257743E-03  1.37271979145557E-02
 cg2d: Sum(rhs),rhsMax =   6.15861988659422E-03  1.37272706630756E-02
 cg2d: Sum(rhs),rhsMax =   6.15941187147153E-03  1.37273433384618E-02
 cg2d: Sum(rhs),rhsMax =   6.16020141317778E-03  1.37274159445879E-02
(PID.TID 0000.0001)      cg2d_init_res =   1.07642899926796E-03
(PID.TID 0000.0001)      cg2d_iters(min,last) =      -1     338
(PID.TID 0000.0001)      cg2d_last_res =   9.93124313114433E-08
(PID.TID 0000.0001) // =======================================================
(PID.TID 0000.0001) // Begin MONITOR dynamic field statistics
(PID.TID 0000.0001) // =======================================================
(PID.TID 0000.0001) %MON time_tsnumber                =                 21528
(PID.TID 0000.0001) %MON time_secondsf                =   2.5833600000000E+07
(PID.TID 0000.0001) %MON dynstat_eta_max              =   1.4045583297334E-01
(PID.TID 0000.0001) %MON dynstat_eta_min              =  -3.6907710292261E-01
(PID.TID 0000.0001) %MON dynstat_eta_mean             =  -4.0247380942455E-07
(PID.TID 0000.0001) %MON dynstat_eta_sd               =   1.2632535813837E-01
(PID.TID 0000.0001) %MON dynstat_eta_del2             =   7.5801921737377E-07
(PID.TID 0000.0001) %MON dynstat_uvel_max             =   1.3798809282483E-01
(PID.TID 0000.0001) %MON dynstat_uvel_min             =  -1.3520076153782E-01
(PID.TID 0000.0001) %MON dynstat_uvel_mean            =  -2.6551347733597E-08
(PID.TID 0000.0001) %MON dynstat_uvel_sd              =   5.2758125875436E-02
(PID.TID 0000.0001) %MON dynstat_uvel_del2            =   1.1242349325972E-06
(PID.TID 0000.0001) %MON dynstat_vvel_max             =   1.7097541662305E-01
(PID.TID 0000.0001) %MON dynstat_vvel_min             =  -1.2862388336199E-01
(PID.TID 0000.0001) %MON dynstat_vvel_mean            =  -2.7552117077084E-08
(PID.TID 0000.0001) %MON dynstat_vvel_sd              =   5.0893129074058E-02
(PID.TID 0000.0001) %MON dynstat_vvel_del2            =   1.3046823654156E-06
(PID.TID 0000.0001) %MON dynstat_wvel_max             =   4.2412465438247E-09
(PID.TID 0000.0001) %MON dynstat_wvel_min             =  -6.5894476510584E-09
(PID.TID 0000.0001) %MON dynstat_wvel_mean            =   1.5875628656981E-20
(PID.TID 0000.0001) %MON dynstat_wvel_sd              =   1.7372955356638E-09
(PID.TID 0000.0001) %MON dynstat_wvel_del2            =   2.0552067039359E-14
(PID.TID 0000.0001) %MON dynstat_theta_max            =   2.0000000000000E+01
(PID.TID 0000.0001) %MON dynstat_theta_min            =   2.0000000000000E+01
(PID.TID 0000.0001) %MON dynstat_theta_mean           =   1.9999999999999E+01
(PID.TID 0000.0001) %MON dynstat_theta_sd             =   1.1972645097557E-12
(PID.TID 0000.0001) %MON dynstat_theta_del2           =   0.0000000000000E+00
(PID.TID 0000.0001) %MON dynstat_salt_max             =   3.0000000000000E+01
(PID.TID 0000.0001) %MON dynstat_salt_min             =   3.0000000000000E+01
(PID.TID 0000.0001) %MON dynstat_salt_mean            =   2.9999999999998E+01
(PID.TID 0000.0001) %MON dynstat_salt_sd              =   2.1529444893531E-12
(PID.TID 0000.0001) %MON dynstat_salt_del2            =   0.0000000000000E+00
(PID.TID 0000.0001) %MON trAdv_CFL_u_max              =   3.3116813168688E-02
(PID.TID 0000.0001) %MON trAdv_CFL_v_max              =   4.1033245084615E-02
(PID.TID 0000.0001) %MON trAdv_CFL_w_max              =   1.0821449397552E-09
(PID.TID 0000.0001) %MON advcfl_uvel_max              =   3.3117142277958E-02
(PID.TID 0000.0001) %MON advcfl_vvel_max              =   4.1034099989533E-02
(PID.TID 0000.0001) %MON advcfl_wvel_max              =   3.1629348725080E-09
(PID.TID 0000.0001) %MON advcfl_W_hf_max              =   0.0000000000000E+00
(PID.TID 0000.0001) %MON pe_b_mean                    =   1.6327318066100E-05
(PID.TID 0000.0001) %MON ke_max                       =   1.4611962570881E-02
(PID.TID 0000.0001) %MON ke_mean                      =   2.6746710636761E-03
(PID.TID 0000.0001) %MON ke_vol                       =   7.2529629296391E+15
(PID.TID 0000.0001) %MON vort_r_min                   =  -4.4955566058352E-06
(PID.TID 0000.0001) %MON vort_r_max                   =   3.5453381652858E-06
(PID.TID 0000.0001) %MON vort_a_mean                  =   1.0615000000000E-04
(PID.TID 0000.0001) %MON vort_a_sd                    =   3.6493498321128E-06
(PID.TID 0000.0001) %MON vort_p_mean                  =   1.1210870169429E-04
(PID.TID 0000.0001) %MON vort_p_sd                    =   2.1073348580851E-05
(PID.TID 0000.0001) %MON surfExpan_theta_mean         =   3.1749990422185E-19
(PID.TID 0000.0001) %MON surfExpan_salt_mean          =   4.7624903444375E-19
(PID.TID 0000.0001) // =======================================================
(PID.TID 0000.0001) // End MONITOR dynamic field statistics
(PID.TID 0000.0001) // =======================================================
 cg2d: Sum(rhs),rhsMax =   6.16098836447117E-03  1.37274884791786E-02
 cg2d: Sum(rhs),rhsMax =   6.16177294764656E-03  1.37275609428407E-02
 cg2d: Sum(rhs),rhsMax =   6.16255512549496E-03  1.37276333347017E-02
 cg2d: Sum(rhs),rhsMax =   6.16333486660855E-03  1.37277056569576E-02
 cg2d: Sum(rhs),rhsMax =   6.16411213187939E-03  1.37277779075585E-02
 cg2d: Sum(rhs),rhsMax =   6.16488702425600E-03  1.37278500885104E-02
 cg2d: Sum(rhs),rhsMax =   6.16565936244623E-03  1.37279221976767E-02
 cg2d: Sum(rhs),rhsMax =   6.16642931050605E-03  1.37279942374640E-02
 cg2d: Sum(rhs),rhsMax =   6.16719674649693E-03  1.37280662056758E-02
 cg2d: Sum(rhs),rhsMax =   6.16796175787615E-03  1.37281381048865E-02
 cg2d: Sum(rhs),rhsMax =   6.16872395209230E-03  1.37282099334643E-02
 cg2d: Sum(rhs),rhsMax =   6.16948401845260E-03  1.37282816913742E-02
 cg2d: Sum(rhs),rhsMax =   6.17024160377566E-03  1.37283533788390E-02
 cg2d: Sum(rhs),rhsMax =   6.17099667587558E-03  1.37284249978308E-02
 cg2d: Sum(rhs),rhsMax =   6.17174938874243E-03  1.37284965448196E-02
 cg2d: Sum(rhs),rhsMax =   6.17249959726150E-03  1.37285680232716E-02
 cg2d: Sum(rhs),rhsMax =   6.17324739232321E-03  1.37286394304983E-02
 cg2d: Sum(rhs),rhsMax =   6.17399245585822E-03  1.37287107690507E-02
 cg2d: Sum(rhs),rhsMax =   6.17473528560281E-03  1.37287820370607E-02
 cg2d: Sum(rhs),rhsMax =   6.17547553830320E-03  1.37288532367061E-02
 cg2d: Sum(rhs),rhsMax =   6.17621339192651E-03  1.37289243655618E-02
 cg2d: Sum(rhs),rhsMax =   6.17694879719269E-03  1.37289954259391E-02
 cg2d: Sum(rhs),rhsMax =   6.17768170750932E-03  1.37290664159001E-02
 cg2d: Sum(rhs),rhsMax =   6.17841225079780E-03  1.37291373380149E-02
 cg2d: Sum(rhs),rhsMax =   6.17913994074294E-03  1.37292081890029E-02
 cg2d: Sum(rhs),rhsMax =   6.17986545350373E-03  1.37292789720721E-02
 cg2d: Sum(rhs),rhsMax =   6.18058846173561E-03  1.37293496856439E-02
 cg2d: Sum(rhs),rhsMax =   6.18130905136350E-03  1.37294203310305E-02
 cg2d: Sum(rhs),rhsMax =   6.18202718214016E-03  1.37294909064083E-02
 cg2d: Sum(rhs),rhsMax =   6.18274285537805E-03  1.37295614137881E-02
 cg2d: Sum(rhs),rhsMax =   6.18345607959838E-03  1.37296318515367E-02
 cg2d: Sum(rhs),rhsMax =   6.18416663949717E-03  1.37297022218276E-02
 cg2d: Sum(rhs),rhsMax =   6.18487495901635E-03  1.37297725214661E-02
 cg2d: Sum(rhs),rhsMax =   6.18558076220739E-03  1.37298427536293E-02
 cg2d: Sum(rhs),rhsMax =   6.18628415626833E-03  1.37299129171546E-02
 cg2d: Sum(rhs),rhsMax =   6.18698509057432E-03  1.37299830128704E-02
 cg2d: Sum(rhs),rhsMax =   6.18768353981757E-03  1.37300530395662E-02
 cg2d: Sum(rhs),rhsMax =   6.18837950474947E-03  1.37301229986752E-02
 cg2d: Sum(rhs),rhsMax =   6.18907294107853E-03  1.37301928892416E-02
 cg2d: Sum(rhs),rhsMax =   6.18976403792069E-03  1.37302627122607E-02
 cg2d: Sum(rhs),rhsMax =   6.19045247145724E-03  1.37303324662775E-02
 cg2d: Sum(rhs),rhsMax =   6.19113870149923E-03  1.37304021533087E-02
 cg2d: Sum(rhs),rhsMax =   6.19182240831634E-03  1.37304717716385E-02
 cg2d: Sum(rhs),rhsMax =   6.19250374251188E-03  1.37305413230627E-02
 cg2d: Sum(rhs),rhsMax =   6.19318263711058E-03  1.37306108060051E-02
 cg2d: Sum(rhs),rhsMax =   6.19385892157245E-03  1.37306802219452E-02
 cg2d: Sum(rhs),rhsMax =   6.19453298046923E-03  1.37307495692739E-02
 cg2d: Sum(rhs),rhsMax =   6.19520453291784E-03  1.37308188504884E-02
 cg2d: Sum(rhs),rhsMax =   6.19587368277531E-03  1.37308880632765E-02
 cg2d: Sum(rhs),rhsMax =   6.19654046542120E-03  1.37309572095754E-02
 cg2d: Sum(rhs),rhsMax =   6.19720476610498E-03  1.37310262880019E-02
 cg2d: Sum(rhs),rhsMax =   6.19786658463357E-03  1.37310952999284E-02
 cg2d: Sum(rhs),rhsMax =   6.19852601588859E-03  1.37311642441533E-02
 cg2d: Sum(rhs),rhsMax =   6.19918302466198E-03  1.37312331226955E-02
 cg2d: Sum(rhs),rhsMax =   6.19983770730724E-03  1.37313019328535E-02
 cg2d: Sum(rhs),rhsMax =   6.20048995027467E-03  1.37313706772351E-02
 cg2d: Sum(rhs),rhsMax =   6.20113980044136E-03  1.37314393541224E-02
 cg2d: Sum(rhs),rhsMax =   6.20178717912236E-03  1.37315079651482E-02
 cg2d: Sum(rhs),rhsMax =   6.20243222383720E-03  1.37315765085700E-02
 cg2d: Sum(rhs),rhsMax =   6.20307487753230E-03  1.37316449866914E-02
 cg2d: Sum(rhs),rhsMax =   6.20371516343630E-03  1.37317133975612E-02
 cg2d: Sum(rhs),rhsMax =   6.20435304030877E-03  1.37317817430208E-02
 cg2d: Sum(rhs),rhsMax =   6.20498856406002E-03  1.37318500208298E-02
 cg2d: Sum(rhs),rhsMax =   6.20562170991552E-03  1.37319182333237E-02
 cg2d: Sum(rhs),rhsMax =   6.20625250940899E-03  1.37319863795263E-02
 cg2d: Sum(rhs),rhsMax =   6.20688088438676E-03  1.37320544604469E-02
 cg2d: Sum(rhs),rhsMax =   6.20750693056905E-03  1.37321224741850E-02
 cg2d: Sum(rhs),rhsMax =   6.20813058901250E-03  1.37321904229463E-02
 cg2d: Sum(rhs),rhsMax =   6.20875196852611E-03  1.37322583059777E-02
 cg2d: Sum(rhs),rhsMax =   6.20937099015999E-03  1.37323261239559E-02
 cg2d: Sum(rhs),rhsMax =   6.21002295517047E-03  1.37323938780381E-02
 cg2d: Sum(rhs),rhsMax =   6.21067242058323E-03  1.37324615643516E-02
(PID.TID 0000.0001)      cg2d_init_res =   1.07277494653443E-03
(PID.TID 0000.0001)      cg2d_iters(min,last) =      -1     337
(PID.TID 0000.0001)      cg2d_last_res =   9.96979078632332E-08
(PID.TID 0000.0001) // =======================================================
(PID.TID 0000.0001) // Begin MONITOR dynamic field statistics
(PID.TID 0000.0001) // =======================================================
(PID.TID 0000.0001) %MON time_tsnumber                =                 21600
(PID.TID 0000.0001) %MON time_secondsf                =   2.5920000000000E+07
(PID.TID 0000.0001) %MON dynstat_eta_max              =   1.4059700177972E-01
(PID.TID 0000.0001) %MON dynstat_eta_min              =  -3.6958794133563E-01
(PID.TID 0000.0001) %MON dynstat_eta_mean             =  -4.0591075683565E-07
(PID.TID 0000.0001) %MON dynstat_eta_sd               =   1.2644404519160E-01
(PID.TID 0000.0001) %MON dynstat_eta_del2             =   7.5851043971380E-07
(PID.TID 0000.0001) %MON dynstat_uvel_max             =   1.3808054862173E-01
(PID.TID 0000.0001) %MON dynstat_uvel_min             =  -1.3534457325480E-01
(PID.TID 0000.0001) %MON dynstat_uvel_mean            =  -2.6414766306180E-08
(PID.TID 0000.0001) %MON dynstat_uvel_sd              =   5.2798679693372E-02
(PID.TID 0000.0001) %MON dynstat_uvel_del2            =   1.1244112999879E-06
(PID.TID 0000.0001) %MON dynstat_vvel_max             =   1.7123219552915E-01
(PID.TID 0000.0001) %MON dynstat_vvel_min             =  -1.2865466210373E-01
(PID.TID 0000.0001) %MON dynstat_vvel_mean            =  -2.3016991104320E-08
(PID.TID 0000.0001) %MON dynstat_vvel_sd              =   5.0951651890315E-02
(PID.TID 0000.0001) %MON dynstat_vvel_del2            =   1.3059045195791E-06
(PID.TID 0000.0001) %MON dynstat_wvel_max             =   4.0515801263973E-09
(PID.TID 0000.0001) %MON dynstat_wvel_min             =  -6.5396812930703E-09
(PID.TID 0000.0001) %MON dynstat_wvel_mean            =  -5.0389774247434E-21
(PID.TID 0000.0001) %MON dynstat_wvel_sd              =   1.7259755391918E-09
(PID.TID 0000.0001) %MON dynstat_wvel_del2            =   2.0774273696126E-14
(PID.TID 0000.0001) %MON dynstat_theta_max            =   2.0000000000000E+01
(PID.TID 0000.0001) %MON dynstat_theta_min            =   2.0000000000000E+01
(PID.TID 0000.0001) %MON dynstat_theta_mean           =   1.9999999999999E+01
(PID.TID 0000.0001) %MON dynstat_theta_sd             =   1.1972645097557E-12
(PID.TID 0000.0001) %MON dynstat_theta_del2           =   0.0000000000000E+00
(PID.TID 0000.0001) %MON dynstat_salt_max             =   3.0000000000000E+01
(PID.TID 0000.0001) %MON dynstat_salt_min             =   3.0000000000000E+01
(PID.TID 0000.0001) %MON dynstat_salt_mean            =   2.9999999999998E+01
(PID.TID 0000.0001) %MON dynstat_salt_sd              =   2.1529444893531E-12
(PID.TID 0000.0001) %MON dynstat_salt_del2            =   0.0000000000000E+00
(PID.TID 0000.0001) %MON trAdv_CFL_u_max              =   3.3139043043793E-02
(PID.TID 0000.0001) %MON trAdv_CFL_v_max              =   4.1094870105689E-02
(PID.TID 0000.0001) %MON trAdv_CFL_w_max              =   1.0322505203692E-09
(PID.TID 0000.0001) %MON advcfl_uvel_max              =   3.3139331669214E-02
(PID.TID 0000.0001) %MON advcfl_vvel_max              =   4.1095726926995E-02
(PID.TID 0000.0001) %MON advcfl_wvel_max              =   3.1390470206738E-09
(PID.TID 0000.0001) %MON advcfl_W_hf_max              =   0.0000000000000E+00
(PID.TID 0000.0001) %MON pe_b_mean                    =   1.6358012641307E-05
(PID.TID 0000.0001) %MON ke_max                       =   1.4655673414493E-02
(PID.TID 0000.0001) %MON ke_mean                      =   2.6797685018524E-03
(PID.TID 0000.0001) %MON ke_vol                       =   7.2529629296391E+15
(PID.TID 0000.0001) %MON vort_r_min                   =  -4.4972505885615E-06
(PID.TID 0000.0001) %MON vort_r_max                   =   3.5491474393925E-06
(PID.TID 0000.0001) %MON vort_a_mean                  =   1.0615000000000E-04
(PID.TID 0000.0001) %MON vort_a_sd                    =   3.6494666890005E-06
(PID.TID 0000.0001) %MON vort_p_mean                  =   1.1210870169429E-04
(PID.TID 0000.0001) %MON vort_p_sd                    =   2.1073408936095E-05
(PID.TID 0000.0001) %MON surfExpan_theta_mean         =  -1.0081632516202E-19
(PID.TID 0000.0001) %MON surfExpan_salt_mean          =  -1.5122061779500E-19
(PID.TID 0000.0001) // =======================================================
(PID.TID 0000.0001) // End MONITOR dynamic field statistics
(PID.TID 0000.0001) // =======================================================
(PID.TID 0000.0001) %CHECKPOINT     21600 ckptA
(PID.TID 0000.0001)   Seconds in section "ALL                    [THE_MODEL_MAIN]":
(PID.TID 0000.0001)           User time:   11679.4762633126
(PID.TID 0000.0001)         System time:  0.000000000000000E+000
(PID.TID 0000.0001)     Wall clock time:   11777.4501698017
(PID.TID 0000.0001)          No. starts:           1
(PID.TID 0000.0001)           No. stops:           1
(PID.TID 0000.0001)   Seconds in section "INITIALISE_FIXED       [THE_MODEL_MAIN]":
(PID.TID 0000.0001)           User time:  8.456099964678288E-002
(PID.TID 0000.0001)         System time:  0.000000000000000E+000
(PID.TID 0000.0001)     Wall clock time:  0.344207048416138
(PID.TID 0000.0001)          No. starts:           1
(PID.TID 0000.0001)           No. stops:           1
(PID.TID 0000.0001)   Seconds in section "THE_MAIN_LOOP          [THE_MODEL_MAIN]":
(PID.TID 0000.0001)           User time:   11679.3916653097
(PID.TID 0000.0001)         System time:  0.000000000000000E+000
(PID.TID 0000.0001)     Wall clock time:   11777.1059019566
(PID.TID 0000.0001)          No. starts:           1
(PID.TID 0000.0001)           No. stops:           1
(PID.TID 0000.0001)   Seconds in section "INITIALISE_VARIA    [THE_MAIN_LOOP]":
(PID.TID 0000.0001)           User time:  3.092800080776215E-002
(PID.TID 0000.0001)         System time:  0.000000000000000E+000
(PID.TID 0000.0001)     Wall clock time:  0.103487014770508
(PID.TID 0000.0001)          No. starts:           1
(PID.TID 0000.0001)           No. stops:           1
(PID.TID 0000.0001)   Seconds in section "MAIN LOOP           [THE_MAIN_LOOP]":
(PID.TID 0000.0001)           User time:   11679.3607043177
(PID.TID 0000.0001)         System time:  0.000000000000000E+000
(PID.TID 0000.0001)     Wall clock time:   11777.0023431778
(PID.TID 0000.0001)          No. starts:           1
(PID.TID 0000.0001)           No. stops:           1
(PID.TID 0000.0001)   Seconds in section "MAIN_DO_LOOP        [THE_MAIN_LOOP]":
(PID.TID 0000.0001)           User time:   11679.1500390619
(PID.TID 0000.0001)         System time:  0.000000000000000E+000
(PID.TID 0000.0001)     Wall clock time:   11776.7874100208
(PID.TID 0000.0001)          No. starts:       21600
(PID.TID 0000.0001)           No. stops:       21600
(PID.TID 0000.0001)   Seconds in section "FORWARD_STEP        [MAIN_DO_LOOP]":
(PID.TID 0000.0001)           User time:   11678.7402869761
(PID.TID 0000.0001)         System time:  0.000000000000000E+000
(PID.TID 0000.0001)     Wall clock time:   11776.3407828808
(PID.TID 0000.0001)          No. starts:       21600
(PID.TID 0000.0001)           No. stops:       21600
(PID.TID 0000.0001)   Seconds in section "LOAD_FIELDS_DRIVER  [FORWARD_STEP]":
(PID.TID 0000.0001)           User time:  0.628623560070992
(PID.TID 0000.0001)         System time:  0.000000000000000E+000
(PID.TID 0000.0001)     Wall clock time:  0.971186637878418
(PID.TID 0000.0001)          No. starts:       21600
(PID.TID 0000.0001)           No. stops:       21600
(PID.TID 0000.0001)   Seconds in section "EXTERNAL_FLDS_LOAD [LOAD_FLDS_DRIVER]":
(PID.TID 0000.0001)           User time:  0.211168453097343
(PID.TID 0000.0001)         System time:  0.000000000000000E+000
(PID.TID 0000.0001)     Wall clock time:  0.222801685333252
(PID.TID 0000.0001)          No. starts:       21600
(PID.TID 0000.0001)           No. stops:       21600
(PID.TID 0000.0001)   Seconds in section "DO_ATMOSPHERIC_PHYS [FORWARD_STEP]":
(PID.TID 0000.0001)           User time:  0.226237729191780
(PID.TID 0000.0001)         System time:  0.000000000000000E+000
(PID.TID 0000.0001)     Wall clock time:  0.220342874526978
(PID.TID 0000.0001)          No. starts:       21600
(PID.TID 0000.0001)           No. stops:       21600
(PID.TID 0000.0001)   Seconds in section "DO_OCEANIC_PHYS     [FORWARD_STEP]":
(PID.TID 0000.0001)           User time:   45.4113867282867
(PID.TID 0000.0001)         System time:  0.000000000000000E+000
(PID.TID 0000.0001)     Wall clock time:   46.1959455013275
(PID.TID 0000.0001)          No. starts:       21600
(PID.TID 0000.0001)           No. stops:       21600
(PID.TID 0000.0001)   Seconds in section "THERMODYNAMICS      [FORWARD_STEP]":
(PID.TID 0000.0001)           User time:   21.5865096449852
(PID.TID 0000.0001)         System time:  0.000000000000000E+000
(PID.TID 0000.0001)     Wall clock time:   21.9211597442627
(PID.TID 0000.0001)          No. starts:       21600
(PID.TID 0000.0001)           No. stops:       21600
(PID.TID 0000.0001)   Seconds in section "DYNAMICS            [FORWARD_STEP]":
(PID.TID 0000.0001)           User time:   579.083037734032
(PID.TID 0000.0001)         System time:  0.000000000000000E+000
(PID.TID 0000.0001)     Wall clock time:   582.222950458527
(PID.TID 0000.0001)          No. starts:       21600
(PID.TID 0000.0001)           No. stops:       21600
(PID.TID 0000.0001)   Seconds in section "SOLVE_FOR_PRESSURE  [FORWARD_STEP]":
(PID.TID 0000.0001)           User time:   10953.9704638422
(PID.TID 0000.0001)         System time:  0.000000000000000E+000
(PID.TID 0000.0001)     Wall clock time:   10987.4906511307
(PID.TID 0000.0001)          No. starts:       21600
(PID.TID 0000.0001)           No. stops:       21600
(PID.TID 0000.0001)   Seconds in section "MOM_CORRECTION_STEP [FORWARD_STEP]":
(PID.TID 0000.0001)           User time:   41.6936339139938
(PID.TID 0000.0001)         System time:  0.000000000000000E+000
(PID.TID 0000.0001)     Wall clock time:   42.1676435470581
(PID.TID 0000.0001)          No. starts:       21600
(PID.TID 0000.0001)           No. stops:       21600
(PID.TID 0000.0001)   Seconds in section "INTEGR_CONTINUITY   [FORWARD_STEP]":
(PID.TID 0000.0001)           User time:   24.1092350482941
(PID.TID 0000.0001)         System time:  0.000000000000000E+000
(PID.TID 0000.0001)     Wall clock time:   24.4276688098907
(PID.TID 0000.0001)          No. starts:       21600
(PID.TID 0000.0001)           No. stops:       21600
(PID.TID 0000.0001)   Seconds in section "TRC_CORRECTION_STEP [FORWARD_STEP]":
(PID.TID 0000.0001)           User time:  0.215616464614868
(PID.TID 0000.0001)         System time:  0.000000000000000E+000
(PID.TID 0000.0001)     Wall clock time:  0.225404024124146
(PID.TID 0000.0001)          No. starts:       21600
(PID.TID 0000.0001)           No. stops:       21600
(PID.TID 0000.0001)   Seconds in section "BLOCKING_EXCHANGES  [FORWARD_STEP]":
(PID.TID 0000.0001)           User time:   2.58068633079529
(PID.TID 0000.0001)         System time:  0.000000000000000E+000
(PID.TID 0000.0001)     Wall clock time:   2.61623597145081
(PID.TID 0000.0001)          No. starts:       21600
(PID.TID 0000.0001)           No. stops:       21600
(PID.TID 0000.0001)   Seconds in section "MONITOR             [FORWARD_STEP]":
(PID.TID 0000.0001)           User time:   3.43854236602783
(PID.TID 0000.0001)         System time:  0.000000000000000E+000
(PID.TID 0000.0001)     Wall clock time:   3.85479545593262
(PID.TID 0000.0001)          No. starts:       21600
(PID.TID 0000.0001)           No. stops:       21600
(PID.TID 0000.0001)   Seconds in section "DO_THE_MODEL_IO     [FORWARD_STEP]":
(PID.TID 0000.0001)           User time:   1.97077757120132
(PID.TID 0000.0001)         System time:  0.000000000000000E+000
(PID.TID 0000.0001)     Wall clock time:   60.4844799041748
(PID.TID 0000.0001)          No. starts:       21600
(PID.TID 0000.0001)           No. stops:       21600
(PID.TID 0000.0001)   Seconds in section "DO_WRITE_PICKUP     [FORWARD_STEP]":
(PID.TID 0000.0001)           User time:  0.250079691410065
(PID.TID 0000.0001)         System time:  0.000000000000000E+000
(PID.TID 0000.0001)     Wall clock time:  0.339105844497681
(PID.TID 0000.0001)          No. starts:       21600
(PID.TID 0000.0001)           No. stops:       21600
(PID.TID 0000.0001) // ======================================================
(PID.TID 0000.0001) // Tile <-> Tile communication statistics
(PID.TID 0000.0001) // ======================================================
(PID.TID 0000.0001) // o Tile number: 000001
(PID.TID 0000.0001) //         No. X exchanges =              0
(PID.TID 0000.0001) //            Max. X spins =              0
(PID.TID 0000.0001) //            Min. X spins =     1000000000
(PID.TID 0000.0001) //          Total. X spins =              0
(PID.TID 0000.0001) //            Avg. X spins =       0.00E+00
(PID.TID 0000.0001) //         No. Y exchanges =              0
(PID.TID 0000.0001) //            Max. Y spins =              0
(PID.TID 0000.0001) //            Min. Y spins =     1000000000
(PID.TID 0000.0001) //          Total. Y spins =              0
(PID.TID 0000.0001) //            Avg. Y spins =       0.00E+00
(PID.TID 0000.0001) // o Thread number: 000001
(PID.TID 0000.0001) //            No. barriers =       47972018
(PID.TID 0000.0001) //      Max. barrier spins =              1
(PID.TID 0000.0001) //      Min. barrier spins =              1
(PID.TID 0000.0001) //     Total barrier spins =       47972018
(PID.TID 0000.0001) //      Avg. barrier spins =       1.00E+00
PROGRAM MAIN: Execution ended Normally
