(PID.TID 0000.0001) 
(PID.TID 0000.0001) // ======================================================
(PID.TID 0000.0001) //                      MITgcm UV
(PID.TID 0000.0001) //                      =========
(PID.TID 0000.0001) // ======================================================
(PID.TID 0000.0001) // execution environment starting up...
(PID.TID 0000.0001) 
(PID.TID 0000.0001) // MITgcmUV version:  checkpoint67v
(PID.TID 0000.0001) // Build user:        eavesr
(PID.TID 0000.0001) // Build host:        atmlxint3
(PID.TID 0000.0001) // Build date:        Mon 15 Feb 11:44:00 GMT 2021
(PID.TID 0000.0001) 
(PID.TID 0000.0001) // =======================================================
(PID.TID 0000.0001) // Execution Environment parameter file "eedata"
(PID.TID 0000.0001) // =======================================================
(PID.TID 0000.0001) ># Example "eedata" file
(PID.TID 0000.0001) ># Lines beginning "#" are comments
(PID.TID 0000.0001) >#  nTx      :: No. threads per process in X
(PID.TID 0000.0001) >#  nTy      :: No. threads per process in Y
(PID.TID 0000.0001) ># debugMode :: print debug msg (sequence of S/R calls)
(PID.TID 0000.0001) > &EEPARMS
(PID.TID 0000.0001) > nTx=1,
(PID.TID 0000.0001) > nTy=1,
(PID.TID 0000.0001) > &
(PID.TID 0000.0001) ># Note: Some systems use & as the namelist terminator (as shown here).
(PID.TID 0000.0001) >#       Other systems use a / character.
(PID.TID 0000.0001) 
(PID.TID 0000.0001) // =======================================================
(PID.TID 0000.0001) // Computational Grid Specification ( see files "SIZE.h" )
(PID.TID 0000.0001) //                                  ( and "eedata"       )
(PID.TID 0000.0001) // =======================================================
(PID.TID 0000.0001)      nPx =    1 ; /* No. processes in X */
(PID.TID 0000.0001)      nPy =    1 ; /* No. processes in Y */
(PID.TID 0000.0001)      nSx =    1 ; /* No. tiles in X per process */
(PID.TID 0000.0001)      nSy =    1 ; /* No. tiles in Y per process */
(PID.TID 0000.0001)      sNx =   62 ; /* Tile size in X */
(PID.TID 0000.0001)      sNy =   62 ; /* Tile size in Y */
(PID.TID 0000.0001)      OLx =    2 ; /* Tile overlap distance in X */
(PID.TID 0000.0001)      OLy =    2 ; /* Tile overlap distance in Y */
(PID.TID 0000.0001)      nTx =    1 ; /* No. threads in X per process */
(PID.TID 0000.0001)      nTy =    1 ; /* No. threads in Y per process */
(PID.TID 0000.0001)       Nr =    1 ; /* No. levels in the vertical   */
(PID.TID 0000.0001)       Nx =   62 ; /* Total domain size in X ( = nPx*nSx*sNx ) */
(PID.TID 0000.0001)       Ny =   62 ; /* Total domain size in Y ( = nPy*nSy*sNy ) */
(PID.TID 0000.0001)   nTiles =    1 ; /* Total no. tiles per process ( = nSx*nSy ) */
(PID.TID 0000.0001)   nProcs =    1 ; /* Total no. processes ( = nPx*nPy ) */
(PID.TID 0000.0001) nThreads =    1 ; /* Total no. threads per process ( = nTx*nTy ) */
(PID.TID 0000.0001) usingMPI =    F ; /* Flag used to control whether MPI is in use */
(PID.TID 0000.0001)                   /*  note: To execute a program with MPI calls */
(PID.TID 0000.0001)                   /*  it must be launched appropriately e.g     */
(PID.TID 0000.0001)                   /*  "mpirun -np 64 ......"                    */
(PID.TID 0000.0001) useCoupler=   F ; /* Flag used to control communications with   */
(PID.TID 0000.0001)                   /*  other model components, through a coupler */
(PID.TID 0000.0001) useNest2W_parent =    F ;/* Control 2-W Nesting comm */
(PID.TID 0000.0001) useNest2W_child  =    F ;/* Control 2-W Nesting comm */
(PID.TID 0000.0001) debugMode =    F ; /* print debug msg. (sequence of S/R calls)  */
(PID.TID 0000.0001) printMapIncludesZeros=    F ; /* print zeros in Std.Output maps */
(PID.TID 0000.0001) maxLengthPrt1D=   65 /* maxLength of 1D array printed to StdOut */
(PID.TID 0000.0001) 
(PID.TID 0000.0001) // ======================================================
(PID.TID 0000.0001) // Mapping of tiles to threads
(PID.TID 0000.0001) // ======================================================
(PID.TID 0000.0001) // -o- Thread   1, tiles (   1:   1,   1:   1)
(PID.TID 0000.0001) 
(PID.TID 0000.0001) // ======================================================
(PID.TID 0000.0001) // Tile <-> Tile connectvity table
(PID.TID 0000.0001) // ======================================================
(PID.TID 0000.0001) // Tile number: 000001 (process no. = 000000)
(PID.TID 0000.0001) //        WEST: Tile = 000001, Process = 000000, Comm = put
(PID.TID 0000.0001) //                bi = 000001, bj = 000001
(PID.TID 0000.0001) //        EAST: Tile = 000001, Process = 000000, Comm = put
(PID.TID 0000.0001) //                bi = 000001, bj = 000001
(PID.TID 0000.0001) //       SOUTH: Tile = 000001, Process = 000000, Comm = put
(PID.TID 0000.0001) //                bi = 000001, bj = 000001
(PID.TID 0000.0001) //       NORTH: Tile = 000001, Process = 000000, Comm = put
(PID.TID 0000.0001) //                bi = 000001, bj = 000001
(PID.TID 0000.0001) 
(PID.TID 0000.0001)  INI_PARMS: opening model parameter file "data"
(PID.TID 0000.0001)  OPEN_COPY_DATA_FILE: opening file data
(PID.TID 0000.0001) // =======================================================
(PID.TID 0000.0001) // Parameter file "data"
(PID.TID 0000.0001) // =======================================================
(PID.TID 0000.0001) ># Model parameters
(PID.TID 0000.0001) ># Continuous equation parameters
(PID.TID 0000.0001) > &PARM01
(PID.TID 0000.0001) > viscAh=4.E2,
(PID.TID 0000.0001) > f0=1.E-4,
(PID.TID 0000.0001) > beta=1.E-11,
(PID.TID 0000.0001) > rhoConst=1000.,
(PID.TID 0000.0001) > gBaro=9.81,
(PID.TID 0000.0001) > rigidLid=.FALSE.,
(PID.TID 0000.0001) > implicitFreeSurface=.TRUE.,
(PID.TID 0000.0001) ># momAdvection=.FALSE.,
(PID.TID 0000.0001) > tempStepping=.FALSE.,
(PID.TID 0000.0001) > saltStepping=.FALSE.,
(PID.TID 0000.0001) > useSingleCpuIO=.TRUE.,
(PID.TID 0000.0001) > &
(PID.TID 0000.0001) >
(PID.TID 0000.0001) ># Elliptic solver parameters
(PID.TID 0000.0001) > &PARM02
(PID.TID 0000.0001) > cg2dTargetResidual=1.E-7,
(PID.TID 0000.0001) > cg2dMaxIters=1000,
(PID.TID 0000.0001) > &
(PID.TID 0000.0001) >
(PID.TID 0000.0001) ># Time stepping parameters
(PID.TID 0000.0001) > &PARM03
(PID.TID 0000.0001) > nIter0=0,
(PID.TID 0000.0001) > nTimeSteps=21600,
(PID.TID 0000.0001) > deltaT=1200.0,
(PID.TID 0000.0001) > pChkptFreq=31104000.0,
(PID.TID 0000.0001) > chkptFreq=25920000.0,
(PID.TID 0000.0001) > dumpFreq=86400.0,
(PID.TID 0000.0001) > monitorFreq=86400.,
(PID.TID 0000.0001) > monitorSelect=2,
(PID.TID 0000.0001) >#-for longer run (3.0 yr):
(PID.TID 0000.0001) ># nTimeSteps=77760,
(PID.TID 0000.0001) ># monitorFreq=864000.,
(PID.TID 0000.0001) > &
(PID.TID 0000.0001) >
(PID.TID 0000.0001) ># Gridding parameters
(PID.TID 0000.0001) > &PARM04
(PID.TID 0000.0001) > usingCartesianGrid=.TRUE.,
(PID.TID 0000.0001) > delX=62*20.E3,
(PID.TID 0000.0001) > delY=62*20.E3,
(PID.TID 0000.0001) > xgOrigin=-20.E3,
(PID.TID 0000.0001) > ygOrigin=-20.E3,
(PID.TID 0000.0001) > delR=5000.,
(PID.TID 0000.0001) > &
(PID.TID 0000.0001) >
(PID.TID 0000.0001) ># Input datasets
(PID.TID 0000.0001) > &PARM05
(PID.TID 0000.0001) > bathyFile='bathy.bin'
(PID.TID 0000.0001) > zonalWindFile='windx_cosy.bin',
(PID.TID 0000.0001) >#zonalWindFile='windx_siny.bin',
(PID.TID 0000.0001) > meridWindFile=,
(PID.TID 0000.0001) > &
(PID.TID 0000.0001) 
(PID.TID 0000.0001)  INI_PARMS ; starts to read PARM01
(PID.TID 0000.0001)  INI_PARMS ; read PARM01 : OK
(PID.TID 0000.0001)  INI_PARMS ; starts to read PARM02
(PID.TID 0000.0001)  INI_PARMS ; read PARM02 : OK
(PID.TID 0000.0001)  INI_PARMS ; starts to read PARM03
(PID.TID 0000.0001)  INI_PARMS ; read PARM03 : OK
(PID.TID 0000.0001)  INI_PARMS ; starts to read PARM04
(PID.TID 0000.0001)  INI_PARMS ; read PARM04 : OK
(PID.TID 0000.0001)  INI_PARMS ; starts to read PARM05
(PID.TID 0000.0001)  INI_PARMS ; read PARM05 : OK
(PID.TID 0000.0001)  INI_PARMS: finished reading file "data"
(PID.TID 0000.0001)  PACKAGES_BOOT: opening data.pkg
(PID.TID 0000.0001)  OPEN_COPY_DATA_FILE: opening file data.pkg
(PID.TID 0000.0001) // =======================================================
(PID.TID 0000.0001) // Parameter file "data.pkg"
(PID.TID 0000.0001) // =======================================================
(PID.TID 0000.0001) ># Packages
(PID.TID 0000.0001) > &PACKAGES
(PID.TID 0000.0001) > &
(PID.TID 0000.0001) 
(PID.TID 0000.0001)  PACKAGES_BOOT: finished reading data.pkg
(PID.TID 0000.0001)  PACKAGES_BOOT: On/Off package Summary
 --------  pkgs with a standard "usePKG" On/Off switch in "data.pkg":  --------
 -------- pkgs without standard "usePKG" On/Off switch in "data.pkg":  --------
 pkg/generic_advdiff      compiled but not used ( useGAD                   = F )
 pkg/mom_common           compiled   and   used ( momStepping              = T )
 pkg/mom_vecinv           compiled but not used ( +vectorInvariantMomentum = F )
 pkg/mom_fluxform         compiled   and   used ( & not vectorInvariantMom = T )
 pkg/monitor              compiled   and   used ( monitorFreq > 0.         = T )
 pkg/debug                compiled but not used ( debugMode                = F )
 pkg/rw                   compiled   and   used
 pkg/mdsio                compiled   and   used
(PID.TID 0000.0001)  PACKAGES_BOOT: End of package Summary
(PID.TID 0000.0001) 
(PID.TID 0000.0001) SET_PARMS: done
(PID.TID 0000.0001) Enter INI_VERTICAL_GRID: setInterFDr=    T ; setCenterDr=    F
(PID.TID 0000.0001) %MON XC_max                       =   1.2100000000000E+06
(PID.TID 0000.0001) %MON XC_min                       =  -1.0000000000000E+04
(PID.TID 0000.0001) %MON XC_mean                      =   6.0000000000000E+05
(PID.TID 0000.0001) %MON XC_sd                        =   3.5791060336347E+05
(PID.TID 0000.0001) %MON XG_max                       =   1.2000000000000E+06
(PID.TID 0000.0001) %MON XG_min                       =  -2.0000000000000E+04
(PID.TID 0000.0001) %MON XG_mean                      =   5.9000000000000E+05
(PID.TID 0000.0001) %MON XG_sd                        =   3.5791060336347E+05
(PID.TID 0000.0001) %MON DXC_max                      =   2.0000000000000E+04
(PID.TID 0000.0001) %MON DXC_min                      =   2.0000000000000E+04
(PID.TID 0000.0001) %MON DXC_mean                     =   2.0000000000000E+04
(PID.TID 0000.0001) %MON DXC_sd                       =   3.6379788070917E-12
(PID.TID 0000.0001) %MON DXF_max                      =   2.0000000000000E+04
(PID.TID 0000.0001) %MON DXF_min                      =   2.0000000000000E+04
(PID.TID 0000.0001) %MON DXF_mean                     =   2.0000000000000E+04
(PID.TID 0000.0001) %MON DXF_sd                       =   3.6379788070917E-12
(PID.TID 0000.0001) %MON DXG_max                      =   2.0000000000000E+04
(PID.TID 0000.0001) %MON DXG_min                      =   2.0000000000000E+04
(PID.TID 0000.0001) %MON DXG_mean                     =   2.0000000000000E+04
(PID.TID 0000.0001) %MON DXG_sd                       =   3.6379788070917E-12
(PID.TID 0000.0001) %MON DXV_max                      =   2.0000000000000E+04
(PID.TID 0000.0001) %MON DXV_min                      =   2.0000000000000E+04
(PID.TID 0000.0001) %MON DXV_mean                     =   2.0000000000000E+04
(PID.TID 0000.0001) %MON DXV_sd                       =   3.6379788070917E-12
(PID.TID 0000.0001) %MON YC_max                       =   1.2100000000000E+06
(PID.TID 0000.0001) %MON YC_min                       =  -1.0000000000000E+04
(PID.TID 0000.0001) %MON YC_mean                      =   6.0000000000000E+05
(PID.TID 0000.0001) %MON YC_sd                        =   3.5791060336347E+05
(PID.TID 0000.0001) %MON YG_max                       =   1.2000000000000E+06
(PID.TID 0000.0001) %MON YG_min                       =  -2.0000000000000E+04
(PID.TID 0000.0001) %MON YG_mean                      =   5.9000000000000E+05
(PID.TID 0000.0001) %MON YG_sd                        =   3.5791060336347E+05
(PID.TID 0000.0001) %MON DYC_max                      =   2.0000000000000E+04
(PID.TID 0000.0001) %MON DYC_min                      =   2.0000000000000E+04
(PID.TID 0000.0001) %MON DYC_mean                     =   2.0000000000000E+04
(PID.TID 0000.0001) %MON DYC_sd                       =   3.6379788070917E-12
(PID.TID 0000.0001) %MON DYF_max                      =   2.0000000000000E+04
(PID.TID 0000.0001) %MON DYF_min                      =   2.0000000000000E+04
(PID.TID 0000.0001) %MON DYF_mean                     =   2.0000000000000E+04
(PID.TID 0000.0001) %MON DYF_sd                       =   3.6379788070917E-12
(PID.TID 0000.0001) %MON DYG_max                      =   2.0000000000000E+04
(PID.TID 0000.0001) %MON DYG_min                      =   2.0000000000000E+04
(PID.TID 0000.0001) %MON DYG_mean                     =   2.0000000000000E+04
(PID.TID 0000.0001) %MON DYG_sd                       =   3.6379788070917E-12
(PID.TID 0000.0001) %MON DYU_max                      =   2.0000000000000E+04
(PID.TID 0000.0001) %MON DYU_min                      =   2.0000000000000E+04
(PID.TID 0000.0001) %MON DYU_mean                     =   2.0000000000000E+04
(PID.TID 0000.0001) %MON DYU_sd                       =   3.6379788070917E-12
(PID.TID 0000.0001) %MON RA_max                       =   4.0000000000000E+08
(PID.TID 0000.0001) %MON RA_min                       =   4.0000000000000E+08
(PID.TID 0000.0001) %MON RA_mean                      =   4.0000000000000E+08
(PID.TID 0000.0001) %MON RA_sd                        =   5.9604644775391E-08
(PID.TID 0000.0001) %MON RAW_max                      =   4.0000000000000E+08
(PID.TID 0000.0001) %MON RAW_min                      =   4.0000000000000E+08
(PID.TID 0000.0001) %MON RAW_mean                     =   4.0000000000000E+08
(PID.TID 0000.0001) %MON RAW_sd                       =   5.9604644775391E-08
(PID.TID 0000.0001) %MON RAS_max                      =   4.0000000000000E+08
(PID.TID 0000.0001) %MON RAS_min                      =   4.0000000000000E+08
(PID.TID 0000.0001) %MON RAS_mean                     =   4.0000000000000E+08
(PID.TID 0000.0001) %MON RAS_sd                       =   5.9604644775391E-08
(PID.TID 0000.0001) %MON RAZ_max                      =   4.0000000000000E+08
(PID.TID 0000.0001) %MON RAZ_min                      =   4.0000000000000E+08
(PID.TID 0000.0001) %MON RAZ_mean                     =   4.0000000000000E+08
(PID.TID 0000.0001) %MON RAZ_sd                       =   5.9604644775391E-08
(PID.TID 0000.0001) %MON AngleCS_max                  =   1.0000000000000E+00
(PID.TID 0000.0001) %MON AngleCS_min                  =   1.0000000000000E+00
(PID.TID 0000.0001) %MON AngleCS_mean                 =   1.0000000000000E+00
(PID.TID 0000.0001) %MON AngleCS_sd                   =   0.0000000000000E+00
(PID.TID 0000.0001) %MON AngleSN_max                  =   0.0000000000000E+00
(PID.TID 0000.0001) %MON AngleSN_min                  =   0.0000000000000E+00
(PID.TID 0000.0001) %MON AngleSN_mean                 =   0.0000000000000E+00
(PID.TID 0000.0001) %MON AngleSN_sd                   =   0.0000000000000E+00
(PID.TID 0000.0001)  MDS_READ_FIELD: opening global file: bathy.bin
(PID.TID 0000.0001) // =======================================================
(PID.TID 0000.0001) // Field Model R_low (ini_masks_etc)
(PID.TID 0000.0001) // CMIN =         -5.000000000000000E+03
(PID.TID 0000.0001) // CMAX =         -5.000000000000000E+03
(PID.TID 0000.0001) // CINT =          0.000000000000000E+00
(PID.TID 0000.0001) // SYMBOLS (CMIN->CMAX): -abcdefghijklmnopqrstuvwxyz+
(PID.TID 0000.0001) //                  0.0: .
(PID.TID 0000.0001) // RANGE I (Lo:Hi:Step):(    -1:    64:     1)
(PID.TID 0000.0001) // RANGE J (Lo:Hi:Step):(    64:    -1:    -1)
(PID.TID 0000.0001) // RANGE K (Lo:Hi:Step):(   1:   1:   1)
(PID.TID 0000.0001) // =======================================================
(PID.TID 0000.0001) // =======================================================
(PID.TID 0000.0001) // END OF FIELD                                          =
(PID.TID 0000.0001) // =======================================================
(PID.TID 0000.0001) 
(PID.TID 0000.0001) // =======================================================
(PID.TID 0000.0001) // Field Model Ro_surf (ini_masks_etc)
(PID.TID 0000.0001) // CMIN =          1.000000000000000E+32
(PID.TID 0000.0001) // CMAX =         -1.000000000000000E+32
(PID.TID 0000.0001) // CINT =          0.000000000000000E+00
(PID.TID 0000.0001) // SYMBOLS (CMIN->CMAX): -abcdefghijklmnopqrstuvwxyz+
(PID.TID 0000.0001) //                  0.0: .
(PID.TID 0000.0001) // RANGE I (Lo:Hi:Step):(    -1:    64:     1)
(PID.TID 0000.0001) // RANGE J (Lo:Hi:Step):(    64:    -1:    -1)
(PID.TID 0000.0001) // RANGE K (Lo:Hi:Step):(   1:   1:   1)
(PID.TID 0000.0001) // =======================================================
(PID.TID 0000.0001) // =======================================================
(PID.TID 0000.0001) // END OF FIELD                                          =
(PID.TID 0000.0001) // =======================================================
(PID.TID 0000.0001) 
(PID.TID 0000.0001) // =======================================================
(PID.TID 0000.0001) // Field hFacC at iteration          0
(PID.TID 0000.0001) // CMIN =          1.000000000000000E+00
(PID.TID 0000.0001) // CMAX =          1.000000000000000E+00
(PID.TID 0000.0001) // CINT =          0.000000000000000E+00
(PID.TID 0000.0001) // SYMBOLS (CMIN->CMAX): -abcdefghijklmnopqrstuvwxyz+
(PID.TID 0000.0001) //                  0.0: .
(PID.TID 0000.0001) // RANGE I (Lo:Hi:Step):(    -1:    64:     1)
(PID.TID 0000.0001) // RANGE J (Lo:Hi:Step):(    64:    -1:    -1)
(PID.TID 0000.0001) // RANGE K (Lo:Hi:Step):(   1:   1:   1)
(PID.TID 0000.0001) // =======================================================
(PID.TID 0000.0001) // =======================================================
(PID.TID 0000.0001) // END OF FIELD                                          =
(PID.TID 0000.0001) // =======================================================
(PID.TID 0000.0001) 
(PID.TID 0000.0001) // =======================================================
(PID.TID 0000.0001) // Field hFacW at iteration          0
(PID.TID 0000.0001) // CMIN =          1.000000000000000E+00
(PID.TID 0000.0001) // CMAX =          1.000000000000000E+00
(PID.TID 0000.0001) // CINT =          0.000000000000000E+00
(PID.TID 0000.0001) // SYMBOLS (CMIN->CMAX): -abcdefghijklmnopqrstuvwxyz+
(PID.TID 0000.0001) //                  0.0: .
(PID.TID 0000.0001) // RANGE I (Lo:Hi:Step):(    -1:    64:     1)
(PID.TID 0000.0001) // RANGE J (Lo:Hi:Step):(    64:    -1:    -1)
(PID.TID 0000.0001) // RANGE K (Lo:Hi:Step):(   1:   1:   1)
(PID.TID 0000.0001) // =======================================================
(PID.TID 0000.0001) // =======================================================
(PID.TID 0000.0001) // END OF FIELD                                          =
(PID.TID 0000.0001) // =======================================================
(PID.TID 0000.0001) 
(PID.TID 0000.0001) // =======================================================
(PID.TID 0000.0001) // Field hFacS at iteration          0
(PID.TID 0000.0001) // CMIN =          1.000000000000000E+00
(PID.TID 0000.0001) // CMAX =          1.000000000000000E+00
(PID.TID 0000.0001) // CINT =          0.000000000000000E+00
(PID.TID 0000.0001) // SYMBOLS (CMIN->CMAX): -abcdefghijklmnopqrstuvwxyz+
(PID.TID 0000.0001) //                  0.0: .
(PID.TID 0000.0001) // RANGE I (Lo:Hi:Step):(    -1:    64:     1)
(PID.TID 0000.0001) // RANGE J (Lo:Hi:Step):(    64:    -1:    -1)
(PID.TID 0000.0001) // RANGE K (Lo:Hi:Step):(   1:   1:   1)
(PID.TID 0000.0001) // =======================================================
(PID.TID 0000.0001) // =======================================================
(PID.TID 0000.0001) // END OF FIELD                                          =
(PID.TID 0000.0001) // =======================================================
(PID.TID 0000.0001) 
(PID.TID 0000.0001) GAD_INIT_FIXED: GAD_OlMinSize=  0  0  1
(PID.TID 0000.0001) 
(PID.TID 0000.0001) // ===================================
(PID.TID 0000.0001) // GAD parameters :
(PID.TID 0000.0001) // ===================================
(PID.TID 0000.0001) tempAdvScheme =   /* Temp. Horiz.Advection scheme selector */
(PID.TID 0000.0001)                       2
(PID.TID 0000.0001)     ;
(PID.TID 0000.0001) tempVertAdvScheme =   /* Temp. Vert. Advection scheme selector */
(PID.TID 0000.0001)                       2
(PID.TID 0000.0001)     ;
(PID.TID 0000.0001) tempMultiDimAdvec =   /* use Muti-Dim Advec method for Temp */
(PID.TID 0000.0001)                   F
(PID.TID 0000.0001)     ;
(PID.TID 0000.0001) tempSOM_Advection = /* use 2nd Order Moment Advection for Temp */
(PID.TID 0000.0001)                   F
(PID.TID 0000.0001)     ;
(PID.TID 0000.0001) AdamsBashforthGt = /* apply Adams-Bashforth extrapolation on Gt */
(PID.TID 0000.0001)                   F
(PID.TID 0000.0001)     ;
(PID.TID 0000.0001) AdamsBashforth_T = /* apply Adams-Bashforth extrapolation on Temp */
(PID.TID 0000.0001)                   F
(PID.TID 0000.0001)     ;
(PID.TID 0000.0001) saltAdvScheme =   /* Salt. Horiz.advection scheme selector */
(PID.TID 0000.0001)                       2
(PID.TID 0000.0001)     ;
(PID.TID 0000.0001) saltVertAdvScheme =   /* Salt. Vert. Advection scheme selector */
(PID.TID 0000.0001)                       2
(PID.TID 0000.0001)     ;
(PID.TID 0000.0001) saltMultiDimAdvec =   /* use Muti-Dim Advec method for Salt */
(PID.TID 0000.0001)                   F
(PID.TID 0000.0001)     ;
(PID.TID 0000.0001) saltSOM_Advection = /* use 2nd Order Moment Advection for Salt */
(PID.TID 0000.0001)                   F
(PID.TID 0000.0001)     ;
(PID.TID 0000.0001) AdamsBashforthGs = /* apply Adams-Bashforth extrapolation on Gs */
(PID.TID 0000.0001)                   F
(PID.TID 0000.0001)     ;
(PID.TID 0000.0001) AdamsBashforth_S = /* apply Adams-Bashforth extrapolation on Salt */
(PID.TID 0000.0001)                   F
(PID.TID 0000.0001)     ;
(PID.TID 0000.0001) // ===================================
(PID.TID 0000.0001) %MON fCori_max                    =   1.1210000000000E-04
(PID.TID 0000.0001) %MON fCori_min                    =   9.9900000000000E-05
(PID.TID 0000.0001) %MON fCori_mean                   =   1.0600000000000E-04
(PID.TID 0000.0001) %MON fCori_sd                     =   3.5791060336346E-06
(PID.TID 0000.0001) %MON fCoriG_max                   =   1.1200000000000E-04
(PID.TID 0000.0001) %MON fCoriG_min                   =   9.9800000000000E-05
(PID.TID 0000.0001) %MON fCoriG_mean                  =   1.0590000000000E-04
(PID.TID 0000.0001) %MON fCoriG_sd                    =   3.5791060336346E-06
(PID.TID 0000.0001) %MON fCoriCos_max                 =   0.0000000000000E+00
(PID.TID 0000.0001) %MON fCoriCos_min                 =   0.0000000000000E+00
(PID.TID 0000.0001) %MON fCoriCos_mean                =   0.0000000000000E+00
(PID.TID 0000.0001) %MON fCoriCos_sd                  =   0.0000000000000E+00
(PID.TID 0000.0001) INI_CG2D: CG2D normalisation factor =  2.0000000000000001E-04
(PID.TID 0000.0001) 
(PID.TID 0000.0001) // =======================================================
(PID.TID 0000.0001) // Model configuration
(PID.TID 0000.0001) // =======================================================
(PID.TID 0000.0001) //
(PID.TID 0000.0001) // "Physical" paramters ( PARM01 in namelist )
(PID.TID 0000.0001) //
(PID.TID 0000.0001) buoyancyRelation = /* Type of relation to get Buoyancy */
(PID.TID 0000.0001)               'OCEANIC'
(PID.TID 0000.0001)     ;
(PID.TID 0000.0001) fluidIsAir   =  /* fluid major constituent is Air */
(PID.TID 0000.0001)                   F
(PID.TID 0000.0001)     ;
(PID.TID 0000.0001) fluidIsWater =  /* fluid major constituent is Water */
(PID.TID 0000.0001)                   T
(PID.TID 0000.0001)     ;
(PID.TID 0000.0001) usingPCoords =  /* use p (or p*) vertical coordinate */
(PID.TID 0000.0001)                   F
(PID.TID 0000.0001)     ;
(PID.TID 0000.0001) usingZCoords =  /* use z (or z*) vertical coordinate */
(PID.TID 0000.0001)                   T
(PID.TID 0000.0001)     ;
(PID.TID 0000.0001) tRef =   /* Reference temperature profile ( oC or K ) */
(PID.TID 0000.0001)                 2.000000000000000E+01       /* K =  1 */
(PID.TID 0000.0001)     ;
(PID.TID 0000.0001) sRef =   /* Reference salinity profile ( psu ) */
(PID.TID 0000.0001)                 3.000000000000000E+01       /* K =  1 */
(PID.TID 0000.0001)     ;
(PID.TID 0000.0001) useStrainTensionVisc= /* Use StrainTension Form of Viscous Operator */
(PID.TID 0000.0001)                   F
(PID.TID 0000.0001)     ;
(PID.TID 0000.0001) useVariableVisc = /* Use variable horizontal viscosity */
(PID.TID 0000.0001)                   F
(PID.TID 0000.0001)     ;
(PID.TID 0000.0001) useHarmonicVisc = /* Use harmonic horizontal viscosity */
(PID.TID 0000.0001)                   T
(PID.TID 0000.0001)     ;
(PID.TID 0000.0001) useBiharmonicVisc= /* Use biharmonic horiz.  viscosity */
(PID.TID 0000.0001)                   F
(PID.TID 0000.0001)     ;
(PID.TID 0000.0001) useSmag3D = /* Use isotropic 3-D Smagorinsky viscosity */
(PID.TID 0000.0001)                   F
(PID.TID 0000.0001)     ;
(PID.TID 0000.0001) viscAh  =   /* Lateral harmonic viscosity ( m^2/s ) */
(PID.TID 0000.0001)                 4.000000000000000E+02
(PID.TID 0000.0001)     ;
(PID.TID 0000.0001) viscA4  =   /* Lateral biharmonic viscosity ( m^4/s ) */
(PID.TID 0000.0001)                 0.000000000000000E+00
(PID.TID 0000.0001)     ;
(PID.TID 0000.0001) no_slip_sides =  /* Viscous BCs: No-slip sides */
(PID.TID 0000.0001)                   T
(PID.TID 0000.0001)     ;
(PID.TID 0000.0001) sideDragFactor = /* side-drag scaling factor (non-dim) */
(PID.TID 0000.0001)                 2.000000000000000E+00
(PID.TID 0000.0001)     ;
(PID.TID 0000.0001) viscArNr = /* vertical profile of vertical viscosity ( m^2/s )*/
(PID.TID 0000.0001)                 0.000000000000000E+00       /* K =  1 */
(PID.TID 0000.0001)     ;
(PID.TID 0000.0001) no_slip_bottom =  /* Viscous BCs: No-slip bottom */
(PID.TID 0000.0001)                   T
(PID.TID 0000.0001)     ;
(PID.TID 0000.0001) bottomVisc_pCell = /* Partial-cell in bottom Visc. BC */
(PID.TID 0000.0001)                   F
(PID.TID 0000.0001)     ;
(PID.TID 0000.0001) bottomDragLinear = /* linear bottom-drag coefficient ( m/s ) */
(PID.TID 0000.0001)                 0.000000000000000E+00
(PID.TID 0000.0001)     ;
(PID.TID 0000.0001) bottomDragQuadratic = /* quadratic bottom-drag coefficient (-) */
(PID.TID 0000.0001)                 0.000000000000000E+00
(PID.TID 0000.0001)     ;
(PID.TID 0000.0001) selectBotDragQuadr = /* select quadratic bottom drag options */
(PID.TID 0000.0001)                      -1
(PID.TID 0000.0001)     ;
(PID.TID 0000.0001) diffKhT =   /* Laplacian diffusion of heat laterally ( m^2/s ) */
(PID.TID 0000.0001)                 0.000000000000000E+00
(PID.TID 0000.0001)     ;
(PID.TID 0000.0001) diffK4T =   /* Biharmonic diffusion of heat laterally ( m^4/s ) */
(PID.TID 0000.0001)                 0.000000000000000E+00
(PID.TID 0000.0001)     ;
(PID.TID 0000.0001) diffKhS =   /* Laplacian diffusion of salt laterally ( m^2/s ) */
(PID.TID 0000.0001)                 0.000000000000000E+00
(PID.TID 0000.0001)     ;
(PID.TID 0000.0001) diffK4S =   /* Biharmonic diffusion of salt laterally ( m^4/s ) */
(PID.TID 0000.0001)                 0.000000000000000E+00
(PID.TID 0000.0001)     ;
(PID.TID 0000.0001) diffKrNrT = /* vertical profile of vertical diffusion of Temp ( m^2/s )*/
(PID.TID 0000.0001)                 0.000000000000000E+00       /* K =  1 */
(PID.TID 0000.0001)     ;
(PID.TID 0000.0001) diffKrNrS = /* vertical profile of vertical diffusion of Salt ( m^2/s )*/
(PID.TID 0000.0001)                 0.000000000000000E+00       /* K =  1 */
(PID.TID 0000.0001)     ;
(PID.TID 0000.0001) diffKrBL79surf = /* Surface diffusion for Bryan and Lewis 79 ( m^2/s ) */
(PID.TID 0000.0001)                 0.000000000000000E+00
(PID.TID 0000.0001)     ;
(PID.TID 0000.0001) diffKrBL79deep = /* Deep diffusion for Bryan and Lewis 1979 ( m^2/s ) */
(PID.TID 0000.0001)                 0.000000000000000E+00
(PID.TID 0000.0001)     ;
(PID.TID 0000.0001) diffKrBL79scl = /* Depth scale for Bryan and Lewis 1979 ( m ) */
(PID.TID 0000.0001)                 2.000000000000000E+02
(PID.TID 0000.0001)     ;
(PID.TID 0000.0001) diffKrBL79Ho = /* Turning depth for Bryan and Lewis 1979 ( m ) */
(PID.TID 0000.0001)                -2.000000000000000E+03
(PID.TID 0000.0001)     ;
(PID.TID 0000.0001) ivdc_kappa = /* Implicit Vertical Diffusivity for Convection ( m^2/s) */
(PID.TID 0000.0001)                 0.000000000000000E+00
(PID.TID 0000.0001)     ;
(PID.TID 0000.0001) hMixCriteria=  /* Criteria for mixed-layer diagnostic */
(PID.TID 0000.0001)                -8.000000000000000E-01
(PID.TID 0000.0001)     ;
(PID.TID 0000.0001) dRhoSmall =  /* Parameter for mixed-layer diagnostic */
(PID.TID 0000.0001)                 1.000000000000000E-06
(PID.TID 0000.0001)     ;
(PID.TID 0000.0001) hMixSmooth=  /* Smoothing parameter for mixed-layer diagnostic */
(PID.TID 0000.0001)                 0.000000000000000E+00
(PID.TID 0000.0001)     ;
(PID.TID 0000.0001) eosType =  /* Type of Equation of State */
(PID.TID 0000.0001)               'LINEAR'
(PID.TID 0000.0001)     ;
(PID.TID 0000.0001) tAlpha = /* Linear EOS thermal expansion coefficient ( 1/oC ) */
(PID.TID 0000.0001)                 2.000000000000000E-04
(PID.TID 0000.0001)     ;
(PID.TID 0000.0001) sBeta  = /* Linear EOS haline contraction coefficient ( 1/psu ) */
(PID.TID 0000.0001)                 7.400000000000000E-04
(PID.TID 0000.0001)     ;
(PID.TID 0000.0001) rhoNil    = /* Reference density for Linear EOS ( kg/m^3 ) */
(PID.TID 0000.0001)                 9.998000000000000E+02
(PID.TID 0000.0001)     ;
(PID.TID 0000.0001) selectP_inEOS_Zc = /* select pressure to use in EOS (0,1,2,3) */
(PID.TID 0000.0001)                       0
(PID.TID 0000.0001)     0= -g*rhoConst*z ; 1= pRef (from tRef,sRef); 2= Hyd P ; 3= Hyd+NH P
(PID.TID 0000.0001)     ;
(PID.TID 0000.0001) surf_pRef = /* Surface reference pressure ( Pa ) */
(PID.TID 0000.0001)                 1.013250000000000E+05
(PID.TID 0000.0001)     ;
(PID.TID 0000.0001) HeatCapacity_Cp =  /* Specific heat capacity ( J/kg/K ) */
(PID.TID 0000.0001)                 3.994000000000000E+03
(PID.TID 0000.0001)     ;
(PID.TID 0000.0001) celsius2K = /* 0 degree Celsius converted to Kelvin ( K ) */
(PID.TID 0000.0001)                 2.731500000000000E+02
(PID.TID 0000.0001)     ;
(PID.TID 0000.0001) rhoConst  = /* Reference density (Boussinesq)  ( kg/m^3 ) */
(PID.TID 0000.0001)                 1.000000000000000E+03
(PID.TID 0000.0001)     ;
(PID.TID 0000.0001) rhoFacC = /* normalized Reference density @ cell-Center (-) */
(PID.TID 0000.0001)                 1.000000000000000E+00       /* K =  1 */
(PID.TID 0000.0001)     ;
(PID.TID 0000.0001) rhoFacF = /* normalized Reference density @ W-Interface (-) */
(PID.TID 0000.0001)     2 @  1.000000000000000E+00              /* K =  1:  2 */
(PID.TID 0000.0001)     ;
(PID.TID 0000.0001) rhoConstFresh = /* Fresh-water reference density ( kg/m^3 ) */
(PID.TID 0000.0001)                 1.000000000000000E+03
(PID.TID 0000.0001)     ;
(PID.TID 0000.0001) gravity =   /* Gravitational acceleration ( m/s^2 ) */
(PID.TID 0000.0001)                 9.810000000000000E+00
(PID.TID 0000.0001)     ;
(PID.TID 0000.0001) gBaro =   /* Barotropic gravity ( m/s^2 ) */
(PID.TID 0000.0001)                 9.810000000000000E+00
(PID.TID 0000.0001)     ;
(PID.TID 0000.0001) gravFacC = /* gravity factor (vs surf.) @ cell-Center (-) */
(PID.TID 0000.0001)                 1.000000000000000E+00       /* K =  1 */
(PID.TID 0000.0001)     ;
(PID.TID 0000.0001) gravFacF = /* gravity factor (vs surf.) @ W-Interface (-) */
(PID.TID 0000.0001)     2 @  1.000000000000000E+00              /* K =  1:  2 */
(PID.TID 0000.0001)     ;
(PID.TID 0000.0001) rotationPeriod =   /* Rotation Period ( s ) */
(PID.TID 0000.0001)                 8.616400000000000E+04
(PID.TID 0000.0001)     ;
(PID.TID 0000.0001) omega =   /* Angular velocity ( rad/s ) */
(PID.TID 0000.0001)                 7.292123516990375E-05
(PID.TID 0000.0001)     ;
(PID.TID 0000.0001) f0 =   /* Reference coriolis parameter ( 1/s ) */
(PID.TID 0000.0001)                 1.000000000000000E-04
(PID.TID 0000.0001)     ;
(PID.TID 0000.0001) beta =   /* Beta ( 1/(m.s) ) */
(PID.TID 0000.0001)                 9.999999999999999E-12
(PID.TID 0000.0001)     ;
(PID.TID 0000.0001) fPrime =   /* Second coriolis parameter ( 1/s ) */
(PID.TID 0000.0001)                 0.000000000000000E+00
(PID.TID 0000.0001)     ;
(PID.TID 0000.0001) rigidLid =   /* Rigid lid on/off flag */
(PID.TID 0000.0001)                   F
(PID.TID 0000.0001)     ;
(PID.TID 0000.0001) implicitFreeSurface =   /* Implicit free surface on/off flag */
(PID.TID 0000.0001)                   T
(PID.TID 0000.0001)     ;
(PID.TID 0000.0001) freeSurfFac =   /* Implicit free surface factor */
(PID.TID 0000.0001)                 1.000000000000000E+00
(PID.TID 0000.0001)     ;
(PID.TID 0000.0001) implicSurfPress =  /* Surface Pressure implicit factor (0-1)*/
(PID.TID 0000.0001)                 1.000000000000000E+00
(PID.TID 0000.0001)     ;
(PID.TID 0000.0001) implicDiv2DFlow =  /* Barot. Flow Div. implicit factor (0-1)*/
(PID.TID 0000.0001)                 1.000000000000000E+00
(PID.TID 0000.0001)     ;
(PID.TID 0000.0001) uniformLin_PhiSurf = /* use uniform Bo_surf on/off flag*/
(PID.TID 0000.0001)                   T
(PID.TID 0000.0001)     ;
(PID.TID 0000.0001) uniformFreeSurfLev = /* free-surface level-index is uniform */
(PID.TID 0000.0001)                   T
(PID.TID 0000.0001)     ;
(PID.TID 0000.0001) hFacMin =   /* minimum partial cell factor (hFac) */
(PID.TID 0000.0001)                 1.000000000000000E+00
(PID.TID 0000.0001)     ;
(PID.TID 0000.0001) hFacMinDr = /* minimum partial cell thickness ( m) */
(PID.TID 0000.0001)                 0.000000000000000E+00
(PID.TID 0000.0001)     ;
(PID.TID 0000.0001) exactConserv =  /* Exact Volume Conservation on/off flag*/
(PID.TID 0000.0001)                   F
(PID.TID 0000.0001)     ;
(PID.TID 0000.0001) linFSConserveTr = /* Tracer correction for Lin Free Surface on/off flag*/
(PID.TID 0000.0001)                   F
(PID.TID 0000.0001)     ;
(PID.TID 0000.0001) nonlinFreeSurf = /* Non-linear Free Surf. options (-1,0,1,2,3)*/
(PID.TID 0000.0001)                       0
(PID.TID 0000.0001)      -1,0= Off ; 1,2,3= On, 2=+rescale gU,gV, 3=+update cg2d solv.
(PID.TID 0000.0001)     ;
(PID.TID 0000.0001) hFacInf =   /* lower threshold for hFac (nonlinFreeSurf only)*/
(PID.TID 0000.0001)                 2.000000000000000E-01
(PID.TID 0000.0001)     ;
(PID.TID 0000.0001) hFacSup =   /* upper threshold for hFac (nonlinFreeSurf only)*/
(PID.TID 0000.0001)                 2.000000000000000E+00
(PID.TID 0000.0001)     ;
(PID.TID 0000.0001) select_rStar = /* r* Vertical coord. options (=0 r coord.; >0 uses r*)*/
(PID.TID 0000.0001)                       0
(PID.TID 0000.0001)     ;
(PID.TID 0000.0001) useRealFreshWaterFlux = /* Real Fresh Water Flux on/off flag*/
(PID.TID 0000.0001)                   F
(PID.TID 0000.0001)     ;
(PID.TID 0000.0001) temp_EvPrRn = /* Temp. of Evap/Prec/R (UNSET=use local T)(oC)*/
(PID.TID 0000.0001)                 1.234567000000000E+05
(PID.TID 0000.0001)     ;
(PID.TID 0000.0001) salt_EvPrRn = /* Salin. of Evap/Prec/R (UNSET=use local S)(psu)*/
(PID.TID 0000.0001)                 0.000000000000000E+00
(PID.TID 0000.0001)     ;
(PID.TID 0000.0001) selectAddFluid = /* option for mass source/sink of fluid (=0: off) */
(PID.TID 0000.0001)                       0
(PID.TID 0000.0001)     ;
(PID.TID 0000.0001) temp_addMass = /* Temp. of addMass array (UNSET=use local T)(oC)*/
(PID.TID 0000.0001)                 1.234567000000000E+05
(PID.TID 0000.0001)     ;
(PID.TID 0000.0001) salt_addMass = /* Salin. of addMass array (UNSET=use local S)(psu)*/
(PID.TID 0000.0001)                 0.000000000000000E+00
(PID.TID 0000.0001)     ;
(PID.TID 0000.0001) convertFW2Salt = /* convert F.W. Flux to Salt Flux (-1=use local S)(psu)*/
(PID.TID 0000.0001)                 3.500000000000000E+01
(PID.TID 0000.0001)     ;
(PID.TID 0000.0001) use3Dsolver = /* use 3-D pressure solver on/off flag */
(PID.TID 0000.0001)                   F
(PID.TID 0000.0001)     ;
(PID.TID 0000.0001) nonHydrostatic =  /* Non-Hydrostatic on/off flag */
(PID.TID 0000.0001)                   F
(PID.TID 0000.0001)     ;
(PID.TID 0000.0001) nh_Am2 = /* Non-Hydrostatic terms scaling factor */
(PID.TID 0000.0001)                 1.000000000000000E+00
(PID.TID 0000.0001)     ;
(PID.TID 0000.0001) implicitNHPress = /* Non-Hyd Pressure implicit factor (0-1)*/
(PID.TID 0000.0001)                 1.000000000000000E+00
(PID.TID 0000.0001)     ;
(PID.TID 0000.0001) selectNHfreeSurf = /* Non-Hyd (free-)Surface option */
(PID.TID 0000.0001)                       0
(PID.TID 0000.0001)     ;
(PID.TID 0000.0001) quasiHydrostatic = /* Quasi-Hydrostatic on/off flag */
(PID.TID 0000.0001)                   F
(PID.TID 0000.0001)     ;
(PID.TID 0000.0001) calc_wVelocity = /* vertical velocity calculation on/off flag */
(PID.TID 0000.0001)                   T
(PID.TID 0000.0001)     ;
(PID.TID 0000.0001) momStepping =  /* Momentum equation on/off flag */
(PID.TID 0000.0001)                   T
(PID.TID 0000.0001)     ;
(PID.TID 0000.0001) vectorInvariantMomentum= /* Vector-Invariant Momentum on/off */
(PID.TID 0000.0001)                   F
(PID.TID 0000.0001)     ;
(PID.TID 0000.0001) momAdvection =  /* Momentum advection on/off flag */
(PID.TID 0000.0001)                   T
(PID.TID 0000.0001)     ;
(PID.TID 0000.0001) momViscosity =  /* Momentum viscosity on/off flag */
(PID.TID 0000.0001)                   T
(PID.TID 0000.0001)     ;
(PID.TID 0000.0001) momImplVertAdv= /* Momentum implicit vert. advection on/off*/
(PID.TID 0000.0001)                   F
(PID.TID 0000.0001)     ;
(PID.TID 0000.0001) implicitViscosity = /* Implicit viscosity on/off flag */
(PID.TID 0000.0001)                   F
(PID.TID 0000.0001)     ;
(PID.TID 0000.0001) selectImplicitDrag= /* Implicit bot Drag options (0,1,2)*/
(PID.TID 0000.0001)                       0
(PID.TID 0000.0001)     0= Expl. ; 1= Impl. on provis. Vel ; 2= Fully Impl (with surf.P)
(PID.TID 0000.0001)     ;
(PID.TID 0000.0001) metricTerms =  /* metric-Terms on/off flag */
(PID.TID 0000.0001)                   F
(PID.TID 0000.0001)     ;
(PID.TID 0000.0001) useNHMTerms = /* Non-Hydrostatic Metric-Terms on/off */
(PID.TID 0000.0001)                   F
(PID.TID 0000.0001)     ;
(PID.TID 0000.0001) selectCoriMap = /* Coriolis Map options (0,1,2,3)*/
(PID.TID 0000.0001)                       1
(PID.TID 0000.0001)     0= f-Plane ; 1= Beta-Plane ; 2= Spherical ; 3= read from file
(PID.TID 0000.0001)     ;
(PID.TID 0000.0001) use3dCoriolis = /* 3-D Coriolis on/off flag */
(PID.TID 0000.0001)                   F
(PID.TID 0000.0001)     ;
(PID.TID 0000.0001) useCoriolis =  /* Coriolis on/off flag */
(PID.TID 0000.0001)                   T
(PID.TID 0000.0001)     ;
(PID.TID 0000.0001) useCDscheme =  /* CD scheme on/off flag */
(PID.TID 0000.0001)                   F
(PID.TID 0000.0001)     ;
(PID.TID 0000.0001) selectCoriScheme= /* Scheme selector for Coriolis-Term */
(PID.TID 0000.0001)                       0
(PID.TID 0000.0001)    = 0 : original discretization (simple averaging, no hFac)
(PID.TID 0000.0001)    = 1 : Wet-point averaging (Jamar & Ozer 1986)
(PID.TID 0000.0001)    = 2 : energy conserving scheme (no hFac weight)
(PID.TID 0000.0001)    = 3 : energy conserving scheme using Wet-point averaging
(PID.TID 0000.0001)     ;
(PID.TID 0000.0001) momForcing =  /* Momentum forcing on/off flag */
(PID.TID 0000.0001)                   T
(PID.TID 0000.0001)     ;
(PID.TID 0000.0001) momTidalForcing = /* Momentum Tidal forcing on/off flag */
(PID.TID 0000.0001)                   T
(PID.TID 0000.0001)     ;
(PID.TID 0000.0001) momPressureForcing =  /* Momentum pressure term on/off flag */
(PID.TID 0000.0001)                   T
(PID.TID 0000.0001)     ;
(PID.TID 0000.0001) implicitIntGravWave= /* Implicit Internal Gravity Wave flag */
(PID.TID 0000.0001)                   F
(PID.TID 0000.0001)     ;
(PID.TID 0000.0001) staggerTimeStep =    /* Stagger time stepping on/off flag */
(PID.TID 0000.0001)                   F
(PID.TID 0000.0001)     ;
(PID.TID 0000.0001) doResetHFactors = /* reset thickness factors @ each time-step */
(PID.TID 0000.0001)                   F
(PID.TID 0000.0001)     ;
(PID.TID 0000.0001) multiDimAdvection =  /* enable/disable Multi-Dim Advection */
(PID.TID 0000.0001)                   T
(PID.TID 0000.0001)     ;
(PID.TID 0000.0001) useMultiDimAdvec =   /* Multi-Dim Advection is/is-not used */
(PID.TID 0000.0001)                   F
(PID.TID 0000.0001)     ;
(PID.TID 0000.0001) implicitDiffusion = /* Implicit Diffusion on/off flag */
(PID.TID 0000.0001)                   F
(PID.TID 0000.0001)     ;
(PID.TID 0000.0001) tempStepping =  /* Temperature equation on/off flag */
(PID.TID 0000.0001)                   F
(PID.TID 0000.0001)     ;
(PID.TID 0000.0001) tempAdvection = /* Temperature advection on/off flag */
(PID.TID 0000.0001)                   F
(PID.TID 0000.0001)     ;
(PID.TID 0000.0001) tempImplVertAdv = /* Temp. implicit vert. advection on/off */
(PID.TID 0000.0001)                   F
(PID.TID 0000.0001)     ;
(PID.TID 0000.0001) tempForcing  =  /* Temperature forcing on/off flag */
(PID.TID 0000.0001)                   F
(PID.TID 0000.0001)     ;
(PID.TID 0000.0001) doThetaClimRelax = /* apply SST relaxation on/off flag */
(PID.TID 0000.0001)                   F
(PID.TID 0000.0001)     ;
(PID.TID 0000.0001) tempIsActiveTr = /* Temp. is a dynamically Active Tracer */
(PID.TID 0000.0001)                   F
(PID.TID 0000.0001)     ;
(PID.TID 0000.0001) saltStepping =  /* Salinity equation on/off flag */
(PID.TID 0000.0001)                   F
(PID.TID 0000.0001)     ;
(PID.TID 0000.0001) saltAdvection = /* Salinity advection on/off flag */
(PID.TID 0000.0001)                   F
(PID.TID 0000.0001)     ;
(PID.TID 0000.0001) saltImplVertAdv = /* Sali. implicit vert. advection on/off */
(PID.TID 0000.0001)                   F
(PID.TID 0000.0001)     ;
(PID.TID 0000.0001) saltForcing  =  /* Salinity forcing on/off flag */
(PID.TID 0000.0001)                   F
(PID.TID 0000.0001)     ;
(PID.TID 0000.0001) doSaltClimRelax = /* apply SSS relaxation on/off flag */
(PID.TID 0000.0001)                   F
(PID.TID 0000.0001)     ;
(PID.TID 0000.0001) saltIsActiveTr = /* Salt  is a dynamically Active Tracer */
(PID.TID 0000.0001)                   F
(PID.TID 0000.0001)     ;
(PID.TID 0000.0001)  readBinaryPrec = /* Precision used for reading binary files */
(PID.TID 0000.0001)                      32
(PID.TID 0000.0001)     ;
(PID.TID 0000.0001) writeBinaryPrec = /* Precision used for writing binary files */
(PID.TID 0000.0001)                      32
(PID.TID 0000.0001)     ;
(PID.TID 0000.0001)  rwSuffixType =   /* select format of mds file suffix */
(PID.TID 0000.0001)                       0
(PID.TID 0000.0001)    = 0 : myIter (I10.10) ;   = 1 : 100*myTime (100th sec) ;
(PID.TID 0000.0001)    = 2 : myTime (seconds);   = 3 : myTime/360 (10th of hr);
(PID.TID 0000.0001)    = 4 : myTime/3600 (hours)
(PID.TID 0000.0001)     ;
(PID.TID 0000.0001)  globalFiles = /* write "global" (=not per tile) files */
(PID.TID 0000.0001)                   F
(PID.TID 0000.0001)     ;
(PID.TID 0000.0001)  useSingleCpuIO = /* only master MPI process does I/O */
(PID.TID 0000.0001)                   T
(PID.TID 0000.0001)     ;
(PID.TID 0000.0001)  useSingleCpuInput = /* only master process reads input */
(PID.TID 0000.0001)                   T
(PID.TID 0000.0001)     ;
(PID.TID 0000.0001) /* debLev[*]  : level of debug & auxiliary message printing */
(PID.TID 0000.0001) debLevZero =  0 ; /* level of disabled aux. msg printing */
(PID.TID 0000.0001)    debLevA =  1 ; /* level of minimum  aux. msg printing */
(PID.TID 0000.0001)    debLevB =  2 ; /* level of low aux. print (report read-file opening)*/
(PID.TID 0000.0001)    debLevC =  3 ; /* level of moderate debug prt (most pkgs debug msg) */
(PID.TID 0000.0001)    debLevD =  4 ; /* level of enhanced debug prt (add DEBUG_STATS prt) */
(PID.TID 0000.0001)    debLevE =  5 ; /* level of extensive debug printing */
(PID.TID 0000.0001) debugLevel =  /* select debug printing level */
(PID.TID 0000.0001)                       2
(PID.TID 0000.0001)     ;
(PID.TID 0000.0001)  plotLevel =  /* select PLOT_FIELD printing level */
(PID.TID 0000.0001)                       2
(PID.TID 0000.0001)     ;
(PID.TID 0000.0001) //
(PID.TID 0000.0001) // Elliptic solver(s) paramters ( PARM02 in namelist )
(PID.TID 0000.0001) //
(PID.TID 0000.0001) cg2dMaxIters =   /* Upper limit on 2d con. grad iterations  */
(PID.TID 0000.0001)                    1000
(PID.TID 0000.0001)     ;
(PID.TID 0000.0001) cg2dChkResFreq =   /* 2d con. grad convergence test frequency */
(PID.TID 0000.0001)                       1
(PID.TID 0000.0001)     ;
(PID.TID 0000.0001) cg2dUseMinResSol= /* use cg2d last-iter(=0) / min-resid.(=1) solution */
(PID.TID 0000.0001)                       0
(PID.TID 0000.0001)     ;
(PID.TID 0000.0001) cg2dTargetResidual =   /* 2d con. grad target residual  */
(PID.TID 0000.0001)                 1.000000000000000E-07
(PID.TID 0000.0001)     ;
(PID.TID 0000.0001) cg2dTargetResWunit =   /* CG2d target residual [W units] */
(PID.TID 0000.0001)                -1.000000000000000E+00
(PID.TID 0000.0001)     ;
(PID.TID 0000.0001) cg2dPreCondFreq =   /* Freq. for updating cg2d preconditioner */
(PID.TID 0000.0001)                       1
(PID.TID 0000.0001)     ;
(PID.TID 0000.0001) useSRCGSolver =  /* use single reduction CG solver(s) */
(PID.TID 0000.0001)                   F
(PID.TID 0000.0001)     ;
(PID.TID 0000.0001) printResidualFreq = /* Freq. for printing CG residual */
(PID.TID 0000.0001)                       0
(PID.TID 0000.0001)     ;
(PID.TID 0000.0001) //
(PID.TID 0000.0001) // Time stepping paramters ( PARM03 in namelist )
(PID.TID 0000.0001) //
(PID.TID 0000.0001) deltaTMom =   /* Momentum equation timestep ( s ) */
(PID.TID 0000.0001)                 1.200000000000000E+03
(PID.TID 0000.0001)     ;
(PID.TID 0000.0001) deltaTFreeSurf = /* FreeSurface equation timestep ( s ) */
(PID.TID 0000.0001)                 1.200000000000000E+03
(PID.TID 0000.0001)     ;
(PID.TID 0000.0001) dTtracerLev =  /* Tracer equation timestep ( s ) */
(PID.TID 0000.0001)                 1.200000000000000E+03       /* K =  1 */
(PID.TID 0000.0001)     ;
(PID.TID 0000.0001) deltaTClock  =   /* Model clock timestep ( s ) */
(PID.TID 0000.0001)                 1.200000000000000E+03
(PID.TID 0000.0001)     ;
(PID.TID 0000.0001) cAdjFreq =   /* Convective adjustment interval ( s ) */
(PID.TID 0000.0001)                 0.000000000000000E+00
(PID.TID 0000.0001)     ;
(PID.TID 0000.0001) momForcingOutAB = /* =1: take Momentum Forcing out of Adams-Bash. stepping */
(PID.TID 0000.0001)                       0
(PID.TID 0000.0001)     ;
(PID.TID 0000.0001) tracForcingOutAB = /* =1: take T,S,pTr Forcing out of Adams-Bash. stepping */
(PID.TID 0000.0001)                       0
(PID.TID 0000.0001)     ;
(PID.TID 0000.0001) momDissip_In_AB = /* put Dissipation Tendency in Adams-Bash. stepping */
(PID.TID 0000.0001)                   T
(PID.TID 0000.0001)     ;
(PID.TID 0000.0001) doAB_onGtGs = /* apply AB on Tendencies (rather than on T,S)*/
(PID.TID 0000.0001)                   T
(PID.TID 0000.0001)     ;
(PID.TID 0000.0001) abEps =   /* Adams-Bashforth-2 stabilizing weight */
(PID.TID 0000.0001)                 1.000000000000000E-02
(PID.TID 0000.0001)     ;
(PID.TID 0000.0001) applyExchUV_early = /* Apply EXCH to U,V earlier in time-step */
(PID.TID 0000.0001)                   F
(PID.TID 0000.0001)     ;
(PID.TID 0000.0001) pickupStrictlyMatch= /* stop if pickup do not strictly match */
(PID.TID 0000.0001)                   T
(PID.TID 0000.0001)     ;
(PID.TID 0000.0001) nIter0   =   /* Run starting timestep number */
(PID.TID 0000.0001)                       0
(PID.TID 0000.0001)     ;
(PID.TID 0000.0001) nTimeSteps = /* Number of timesteps */
(PID.TID 0000.0001)                   21600
(PID.TID 0000.0001)     ;
(PID.TID 0000.0001) nEndIter =   /* Run ending timestep number */
(PID.TID 0000.0001)                   21600
(PID.TID 0000.0001)     ;
(PID.TID 0000.0001) baseTime =   /* Model base time ( s ) */
(PID.TID 0000.0001)                 0.000000000000000E+00
(PID.TID 0000.0001)     ;
(PID.TID 0000.0001) startTime =  /* Run start time ( s ) */
(PID.TID 0000.0001)                 0.000000000000000E+00
(PID.TID 0000.0001)     ;
(PID.TID 0000.0001) endTime  =   /* Integration ending time ( s ) */
(PID.TID 0000.0001)                 2.592000000000000E+07
(PID.TID 0000.0001)     ;
(PID.TID 0000.0001) pChkPtFreq = /* Permanent restart/pickup file interval ( s ) */
(PID.TID 0000.0001)                 3.110400000000000E+07
(PID.TID 0000.0001)     ;
(PID.TID 0000.0001) chkPtFreq  = /* Rolling restart/pickup file interval ( s ) */
(PID.TID 0000.0001)                 2.592000000000000E+07
(PID.TID 0000.0001)     ;
(PID.TID 0000.0001) pickup_write_mdsio =   /* Model IO flag. */
(PID.TID 0000.0001)                   T
(PID.TID 0000.0001)     ;
(PID.TID 0000.0001) pickup_read_mdsio =   /* Model IO flag. */
(PID.TID 0000.0001)                   T
(PID.TID 0000.0001)     ;
(PID.TID 0000.0001) writePickupAtEnd =   /* Model IO flag. */
(PID.TID 0000.0001)                   T
(PID.TID 0000.0001)     ;
(PID.TID 0000.0001) dumpFreq =   /* Model state write out interval ( s ). */
(PID.TID 0000.0001)                 8.640000000000000E+04
(PID.TID 0000.0001)     ;
(PID.TID 0000.0001) dumpInitAndLast= /* write out Initial & Last iter. model state */
(PID.TID 0000.0001)                   T
(PID.TID 0000.0001)     ;
(PID.TID 0000.0001) snapshot_mdsio =   /* Model IO flag. */
(PID.TID 0000.0001)                   T
(PID.TID 0000.0001)     ;
(PID.TID 0000.0001) monitorFreq =   /* Monitor output interval ( s ). */
(PID.TID 0000.0001)                 8.640000000000000E+04
(PID.TID 0000.0001)     ;
(PID.TID 0000.0001) monitorSelect = /* select group of variables to monitor */
(PID.TID 0000.0001)                       2
(PID.TID 0000.0001)     ;
(PID.TID 0000.0001) monitor_stdio =   /* Model IO flag. */
(PID.TID 0000.0001)                   T
(PID.TID 0000.0001)     ;
(PID.TID 0000.0001) externForcingPeriod =   /* forcing period (s) */
(PID.TID 0000.0001)                 0.000000000000000E+00
(PID.TID 0000.0001)     ;
(PID.TID 0000.0001) externForcingCycle =   /* period of the cyle (s). */
(PID.TID 0000.0001)                 0.000000000000000E+00
(PID.TID 0000.0001)     ;
(PID.TID 0000.0001) tauThetaClimRelax =   /* relaxation time scale (s) */
(PID.TID 0000.0001)                 0.000000000000000E+00
(PID.TID 0000.0001)     ;
(PID.TID 0000.0001) tauSaltClimRelax =   /* relaxation time scale (s) */
(PID.TID 0000.0001)                 0.000000000000000E+00
(PID.TID 0000.0001)     ;
(PID.TID 0000.0001) latBandClimRelax =   /* max. Lat. where relaxation */
(PID.TID 0000.0001)                 3.720000000000000E+06
(PID.TID 0000.0001)     ;
(PID.TID 0000.0001) //
(PID.TID 0000.0001) // Gridding paramters ( PARM04 in namelist )
(PID.TID 0000.0001) //
(PID.TID 0000.0001) usingCartesianGrid = /* Cartesian coordinates flag ( True/False ) */
(PID.TID 0000.0001)                   T
(PID.TID 0000.0001)     ;
(PID.TID 0000.0001) usingCylindricalGrid = /* Cylindrical coordinates flag ( True/False ) */
(PID.TID 0000.0001)                   F
(PID.TID 0000.0001)     ;
(PID.TID 0000.0001) usingSphericalPolarGrid = /* Spherical coordinates flag ( True/False ) */
(PID.TID 0000.0001)                   F
(PID.TID 0000.0001)     ;
(PID.TID 0000.0001) usingCurvilinearGrid = /* Curvilinear coordinates flag ( True/False ) */
(PID.TID 0000.0001)                   F
(PID.TID 0000.0001)     ;
(PID.TID 0000.0001) useMin4hFacEdges = /* set hFacW,S as minimum of adjacent hFacC factor */
(PID.TID 0000.0001)                   F
(PID.TID 0000.0001)     ;
(PID.TID 0000.0001) interViscAr_pCell = /* account for partial-cell in interior vert. viscosity */
(PID.TID 0000.0001)                   F
(PID.TID 0000.0001)     ;
(PID.TID 0000.0001) interDiffKr_pCell = /* account for partial-cell in interior vert. diffusion */
(PID.TID 0000.0001)                   F
(PID.TID 0000.0001)     ;
(PID.TID 0000.0001) pCellMix_select = /* option to enhance mixing near surface & bottom */
(PID.TID 0000.0001)                       0
(PID.TID 0000.0001)     ;
(PID.TID 0000.0001) selectSigmaCoord = /* Hybrid-Sigma Vert. Coordinate option */
(PID.TID 0000.0001)                       0
(PID.TID 0000.0001)     ;
(PID.TID 0000.0001) rSigmaBnd = /* r/sigma transition ( units of r ==  m ) */
(PID.TID 0000.0001)                 1.234567000000000E+05
(PID.TID 0000.0001)     ;
(PID.TID 0000.0001) rkSign =   /* index orientation relative to vertical coordinate */
(PID.TID 0000.0001)                -1.000000000000000E+00
(PID.TID 0000.0001)     ;
(PID.TID 0000.0001) gravitySign = /* gravity orientation relative to vertical coordinate */
(PID.TID 0000.0001)                -1.000000000000000E+00
(PID.TID 0000.0001)     ;
(PID.TID 0000.0001) seaLev_Z =  /* reference height of sea-level [m] */
(PID.TID 0000.0001)                 0.000000000000000E+00
(PID.TID 0000.0001)     ;
(PID.TID 0000.0001) top_Pres =  /* reference pressure at the top [Pa] */
(PID.TID 0000.0001)                 0.000000000000000E+00
(PID.TID 0000.0001)     ;
(PID.TID 0000.0001) mass2rUnit = /* convert mass per unit area [kg/m2] to r-units [m] */
(PID.TID 0000.0001)                 1.000000000000000E-03
(PID.TID 0000.0001)     ;
(PID.TID 0000.0001) rUnit2mass = /* convert r-units [m] to mass per unit area [kg/m2] */
(PID.TID 0000.0001)                 1.000000000000000E+03
(PID.TID 0000.0001)     ;
(PID.TID 0000.0001) drC =   /* C spacing ( units of r ) */
(PID.TID 0000.0001)     2 @  2.500000000000000E+03              /* K =  1:  2 */
(PID.TID 0000.0001)     ;
(PID.TID 0000.0001) drF =   /* W spacing ( units of r ) */
(PID.TID 0000.0001)                 5.000000000000000E+03       /* K =  1 */
(PID.TID 0000.0001)     ;
(PID.TID 0000.0001) delX = /* U spacing ( m - cartesian, degrees - spherical ) */
(PID.TID 0000.0001)    62 @  2.000000000000000E+04              /* I =  1: 62 */
(PID.TID 0000.0001)     ;
(PID.TID 0000.0001) delY = /* V spacing ( m - cartesian, degrees - spherical ) */
(PID.TID 0000.0001)    62 @  2.000000000000000E+04              /* J =  1: 62 */
(PID.TID 0000.0001)     ;
(PID.TID 0000.0001) xgOrigin = /* X-axis origin of West  edge (cartesian: m, lat-lon: deg) */
(PID.TID 0000.0001)                -2.000000000000000E+04
(PID.TID 0000.0001)     ;
(PID.TID 0000.0001) ygOrigin = /* Y-axis origin of South edge (cartesian: m, lat-lon: deg) */
(PID.TID 0000.0001)                -2.000000000000000E+04
(PID.TID 0000.0001)     ;
(PID.TID 0000.0001) rSphere =  /* Radius ( ignored - cartesian, m - spherical ) */
(PID.TID 0000.0001)                 6.370000000000000E+06
(PID.TID 0000.0001)     ;
(PID.TID 0000.0001) deepAtmosphere = /* Deep/Shallow Atmosphere flag (True/False) */
(PID.TID 0000.0001)                   F
(PID.TID 0000.0001)     ;
(PID.TID 0000.0001) xC =  /* xC(:,1,:,1) : P-point X coord ( deg. or m if cartesian) */
(PID.TID 0000.0001)                -1.000000000000000E+04,      /* I =  1 */
(PID.TID 0000.0001)                 1.000000000000000E+04,      /* I =  2 */
(PID.TID 0000.0001)                 3.000000000000000E+04,      /* I =  3 */
(PID.TID 0000.0001)                 5.000000000000000E+04,      /* I =  4 */
(PID.TID 0000.0001)                 7.000000000000000E+04,      /* I =  5 */
(PID.TID 0000.0001)                 9.000000000000000E+04,      /* I =  6 */
(PID.TID 0000.0001)                 1.100000000000000E+05,      /* I =  7 */
(PID.TID 0000.0001)                 1.300000000000000E+05,      /* I =  8 */
(PID.TID 0000.0001)                 1.500000000000000E+05,      /* I =  9 */
(PID.TID 0000.0001)                 1.700000000000000E+05,      /* I = 10 */
(PID.TID 0000.0001)                 1.900000000000000E+05,      /* I = 11 */
(PID.TID 0000.0001)                 2.100000000000000E+05,      /* I = 12 */
(PID.TID 0000.0001)                 2.300000000000000E+05,      /* I = 13 */
(PID.TID 0000.0001)                 2.500000000000000E+05,      /* I = 14 */
(PID.TID 0000.0001)                 2.700000000000000E+05,      /* I = 15 */
(PID.TID 0000.0001)                 2.900000000000000E+05,      /* I = 16 */
(PID.TID 0000.0001)                 3.100000000000000E+05,      /* I = 17 */
(PID.TID 0000.0001)                 3.300000000000000E+05,      /* I = 18 */
(PID.TID 0000.0001)                 3.500000000000000E+05,      /* I = 19 */
(PID.TID 0000.0001)                 3.700000000000000E+05,      /* I = 20 */
(PID.TID 0000.0001)                 3.900000000000000E+05,      /* I = 21 */
(PID.TID 0000.0001)                 4.100000000000000E+05,      /* I = 22 */
(PID.TID 0000.0001)                 4.300000000000000E+05,      /* I = 23 */
(PID.TID 0000.0001)                 4.500000000000000E+05,      /* I = 24 */
(PID.TID 0000.0001)                 4.700000000000000E+05,      /* I = 25 */
(PID.TID 0000.0001)                 4.900000000000000E+05,      /* I = 26 */
(PID.TID 0000.0001)                 5.100000000000000E+05,      /* I = 27 */
(PID.TID 0000.0001)                 5.300000000000000E+05,      /* I = 28 */
(PID.TID 0000.0001)                 5.500000000000000E+05,      /* I = 29 */
(PID.TID 0000.0001)                 5.700000000000000E+05,      /* I = 30 */
(PID.TID 0000.0001)                 5.900000000000000E+05,      /* I = 31 */
(PID.TID 0000.0001)                 6.100000000000000E+05,      /* I = 32 */
(PID.TID 0000.0001)                 6.300000000000000E+05,      /* I = 33 */
(PID.TID 0000.0001)                 6.500000000000000E+05,      /* I = 34 */
(PID.TID 0000.0001)                 6.700000000000000E+05,      /* I = 35 */
(PID.TID 0000.0001)                 6.900000000000000E+05,      /* I = 36 */
(PID.TID 0000.0001)                 7.100000000000000E+05,      /* I = 37 */
(PID.TID 0000.0001)                 7.300000000000000E+05,      /* I = 38 */
(PID.TID 0000.0001)                 7.500000000000000E+05,      /* I = 39 */
(PID.TID 0000.0001)                 7.700000000000000E+05,      /* I = 40 */
(PID.TID 0000.0001)                 7.900000000000000E+05,      /* I = 41 */
(PID.TID 0000.0001)                 8.100000000000000E+05,      /* I = 42 */
(PID.TID 0000.0001)                 8.300000000000000E+05,      /* I = 43 */
(PID.TID 0000.0001)                 8.500000000000000E+05,      /* I = 44 */
(PID.TID 0000.0001)                 8.700000000000000E+05,      /* I = 45 */
(PID.TID 0000.0001)                 8.900000000000000E+05,      /* I = 46 */
(PID.TID 0000.0001)                 9.100000000000000E+05,      /* I = 47 */
(PID.TID 0000.0001)                 9.300000000000000E+05,      /* I = 48 */
(PID.TID 0000.0001)                 9.500000000000000E+05,      /* I = 49 */
(PID.TID 0000.0001)                 9.700000000000000E+05,      /* I = 50 */
(PID.TID 0000.0001)                 9.900000000000000E+05,      /* I = 51 */
(PID.TID 0000.0001)                 1.010000000000000E+06,      /* I = 52 */
(PID.TID 0000.0001)                 1.030000000000000E+06,      /* I = 53 */
(PID.TID 0000.0001)                 1.050000000000000E+06,      /* I = 54 */
(PID.TID 0000.0001)                 1.070000000000000E+06,      /* I = 55 */
(PID.TID 0000.0001)                 1.090000000000000E+06,      /* I = 56 */
(PID.TID 0000.0001)                 1.110000000000000E+06,      /* I = 57 */
(PID.TID 0000.0001)                 1.130000000000000E+06,      /* I = 58 */
(PID.TID 0000.0001)                 1.150000000000000E+06,      /* I = 59 */
(PID.TID 0000.0001)                 1.170000000000000E+06,      /* I = 60 */
(PID.TID 0000.0001)                 1.190000000000000E+06,      /* I = 61 */
(PID.TID 0000.0001)                 1.210000000000000E+06       /* I = 62 */
(PID.TID 0000.0001)     ;
(PID.TID 0000.0001) yC =  /* yC(1,:,1,:) : P-point Y coord ( deg. or m if cartesian) */
(PID.TID 0000.0001)                -1.000000000000000E+04,      /* J =  1 */
(PID.TID 0000.0001)                 1.000000000000000E+04,      /* J =  2 */
(PID.TID 0000.0001)                 3.000000000000000E+04,      /* J =  3 */
(PID.TID 0000.0001)                 5.000000000000000E+04,      /* J =  4 */
(PID.TID 0000.0001)                 7.000000000000000E+04,      /* J =  5 */
(PID.TID 0000.0001)                 9.000000000000000E+04,      /* J =  6 */
(PID.TID 0000.0001)                 1.100000000000000E+05,      /* J =  7 */
(PID.TID 0000.0001)                 1.300000000000000E+05,      /* J =  8 */
(PID.TID 0000.0001)                 1.500000000000000E+05,      /* J =  9 */
(PID.TID 0000.0001)                 1.700000000000000E+05,      /* J = 10 */
(PID.TID 0000.0001)                 1.900000000000000E+05,      /* J = 11 */
(PID.TID 0000.0001)                 2.100000000000000E+05,      /* J = 12 */
(PID.TID 0000.0001)                 2.300000000000000E+05,      /* J = 13 */
(PID.TID 0000.0001)                 2.500000000000000E+05,      /* J = 14 */
(PID.TID 0000.0001)                 2.700000000000000E+05,      /* J = 15 */
(PID.TID 0000.0001)                 2.900000000000000E+05,      /* J = 16 */
(PID.TID 0000.0001)                 3.100000000000000E+05,      /* J = 17 */
(PID.TID 0000.0001)                 3.300000000000000E+05,      /* J = 18 */
(PID.TID 0000.0001)                 3.500000000000000E+05,      /* J = 19 */
(PID.TID 0000.0001)                 3.700000000000000E+05,      /* J = 20 */
(PID.TID 0000.0001)                 3.900000000000000E+05,      /* J = 21 */
(PID.TID 0000.0001)                 4.100000000000000E+05,      /* J = 22 */
(PID.TID 0000.0001)                 4.300000000000000E+05,      /* J = 23 */
(PID.TID 0000.0001)                 4.500000000000000E+05,      /* J = 24 */
(PID.TID 0000.0001)                 4.700000000000000E+05,      /* J = 25 */
(PID.TID 0000.0001)                 4.900000000000000E+05,      /* J = 26 */
(PID.TID 0000.0001)                 5.100000000000000E+05,      /* J = 27 */
(PID.TID 0000.0001)                 5.300000000000000E+05,      /* J = 28 */
(PID.TID 0000.0001)                 5.500000000000000E+05,      /* J = 29 */
(PID.TID 0000.0001)                 5.700000000000000E+05,      /* J = 30 */
(PID.TID 0000.0001)                 5.900000000000000E+05,      /* J = 31 */
(PID.TID 0000.0001)                 6.100000000000000E+05,      /* J = 32 */
(PID.TID 0000.0001)                 6.300000000000000E+05,      /* J = 33 */
(PID.TID 0000.0001)                 6.500000000000000E+05,      /* J = 34 */
(PID.TID 0000.0001)                 6.700000000000000E+05,      /* J = 35 */
(PID.TID 0000.0001)                 6.900000000000000E+05,      /* J = 36 */
(PID.TID 0000.0001)                 7.100000000000000E+05,      /* J = 37 */
(PID.TID 0000.0001)                 7.300000000000000E+05,      /* J = 38 */
(PID.TID 0000.0001)                 7.500000000000000E+05,      /* J = 39 */
(PID.TID 0000.0001)                 7.700000000000000E+05,      /* J = 40 */
(PID.TID 0000.0001)                 7.900000000000000E+05,      /* J = 41 */
(PID.TID 0000.0001)                 8.100000000000000E+05,      /* J = 42 */
(PID.TID 0000.0001)                 8.300000000000000E+05,      /* J = 43 */
(PID.TID 0000.0001)                 8.500000000000000E+05,      /* J = 44 */
(PID.TID 0000.0001)                 8.700000000000000E+05,      /* J = 45 */
(PID.TID 0000.0001)                 8.900000000000000E+05,      /* J = 46 */
(PID.TID 0000.0001)                 9.100000000000000E+05,      /* J = 47 */
(PID.TID 0000.0001)                 9.300000000000000E+05,      /* J = 48 */
(PID.TID 0000.0001)                 9.500000000000000E+05,      /* J = 49 */
(PID.TID 0000.0001)                 9.700000000000000E+05,      /* J = 50 */
(PID.TID 0000.0001)                 9.900000000000000E+05,      /* J = 51 */
(PID.TID 0000.0001)                 1.010000000000000E+06,      /* J = 52 */
(PID.TID 0000.0001)                 1.030000000000000E+06,      /* J = 53 */
(PID.TID 0000.0001)                 1.050000000000000E+06,      /* J = 54 */
(PID.TID 0000.0001)                 1.070000000000000E+06,      /* J = 55 */
(PID.TID 0000.0001)                 1.090000000000000E+06,      /* J = 56 */
(PID.TID 0000.0001)                 1.110000000000000E+06,      /* J = 57 */
(PID.TID 0000.0001)                 1.130000000000000E+06,      /* J = 58 */
(PID.TID 0000.0001)                 1.150000000000000E+06,      /* J = 59 */
(PID.TID 0000.0001)                 1.170000000000000E+06,      /* J = 60 */
(PID.TID 0000.0001)                 1.190000000000000E+06,      /* J = 61 */
(PID.TID 0000.0001)                 1.210000000000000E+06       /* J = 62 */
(PID.TID 0000.0001)     ;
(PID.TID 0000.0001) rcoord = /* P-point R coordinate (  units of r ) */
(PID.TID 0000.0001)                -2.500000000000000E+03       /* K =  1 */
(PID.TID 0000.0001)     ;
(PID.TID 0000.0001) rF =   /* W-Interf. R coordinate (  units of r ) */
(PID.TID 0000.0001)                 0.000000000000000E+00,      /* K =  1 */
(PID.TID 0000.0001)                -5.000000000000000E+03       /* K =  2 */
(PID.TID 0000.0001)     ;
(PID.TID 0000.0001) deepFacC = /* deep-model grid factor @ cell-Center (-) */
(PID.TID 0000.0001)                 1.000000000000000E+00       /* K =  1 */
(PID.TID 0000.0001)     ;
(PID.TID 0000.0001) deepFacF = /* deep-model grid factor @ W-Interface (-) */
(PID.TID 0000.0001)     2 @  1.000000000000000E+00              /* K =  1:  2 */
(PID.TID 0000.0001)     ;
(PID.TID 0000.0001) rVel2wUnit = /* convert units: rVel -> wSpeed (=1 if z-coord)*/
(PID.TID 0000.0001)     2 @  1.000000000000000E+00              /* K =  1:  2 */
(PID.TID 0000.0001)     ;
(PID.TID 0000.0001) wUnit2rVel = /* convert units: wSpeed -> rVel (=1 if z-coord)*/
(PID.TID 0000.0001)     2 @  1.000000000000000E+00              /* K =  1:  2 */
(PID.TID 0000.0001)     ;
(PID.TID 0000.0001) dBdrRef = /* Vertical grad. of reference buoyancy [(m/s/r)^2] */
(PID.TID 0000.0001)                 0.000000000000000E+00       /* K =  1 */
(PID.TID 0000.0001)     ;
(PID.TID 0000.0001) rotateGrid = /* use rotated grid ( True/False ) */
(PID.TID 0000.0001)                   F
(PID.TID 0000.0001)     ;
(PID.TID 0000.0001) phiEuler = /* Euler angle, rotation about original z-coordinate [rad] */
(PID.TID 0000.0001)                 0.000000000000000E+00
(PID.TID 0000.0001)     ;
(PID.TID 0000.0001) thetaEuler = /* Euler angle, rotation about new x-coordinate [rad] */
(PID.TID 0000.0001)                 0.000000000000000E+00
(PID.TID 0000.0001)     ;
(PID.TID 0000.0001) psiEuler = /* Euler angle, rotation about new z-coordinate [rad] */
(PID.TID 0000.0001)                 0.000000000000000E+00
(PID.TID 0000.0001)     ;
(PID.TID 0000.0001) dxF =  /* dxF(:,1,:,1) ( units: m ) */
(PID.TID 0000.0001)    62 @  2.000000000000000E+04              /* I =  1: 62 */
(PID.TID 0000.0001)     ;
(PID.TID 0000.0001) dxF =  /* dxF(1,:,1,:) ( units: m ) */
(PID.TID 0000.0001)    62 @  2.000000000000000E+04              /* J =  1: 62 */
(PID.TID 0000.0001)     ;
(PID.TID 0000.0001) dyF =  /* dyF(:,1,:,1) ( units: m ) */
(PID.TID 0000.0001)    62 @  2.000000000000000E+04              /* I =  1: 62 */
(PID.TID 0000.0001)     ;
(PID.TID 0000.0001) dyF =  /* dyF(1,:,1,:) ( units: m ) */
(PID.TID 0000.0001)    62 @  2.000000000000000E+04              /* J =  1: 62 */
(PID.TID 0000.0001)     ;
(PID.TID 0000.0001) dxG =  /* dxG(:,1,:,1) ( units: m ) */
(PID.TID 0000.0001)    62 @  2.000000000000000E+04              /* I =  1: 62 */
(PID.TID 0000.0001)     ;
(PID.TID 0000.0001) dxG =  /* dxG(1,:,1,:) ( units: m ) */
(PID.TID 0000.0001)    62 @  2.000000000000000E+04              /* J =  1: 62 */
(PID.TID 0000.0001)     ;
(PID.TID 0000.0001) dyG =  /* dyG(:,1,:,1) ( units: m ) */
(PID.TID 0000.0001)    62 @  2.000000000000000E+04              /* I =  1: 62 */
(PID.TID 0000.0001)     ;
(PID.TID 0000.0001) dyG =  /* dyG(1,:,1,:) ( units: m ) */
(PID.TID 0000.0001)    62 @  2.000000000000000E+04              /* J =  1: 62 */
(PID.TID 0000.0001)     ;
(PID.TID 0000.0001) dxC =  /* dxC(:,1,:,1) ( units: m ) */
(PID.TID 0000.0001)    62 @  2.000000000000000E+04              /* I =  1: 62 */
(PID.TID 0000.0001)     ;
(PID.TID 0000.0001) dxC =  /* dxC(1,:,1,:) ( units: m ) */
(PID.TID 0000.0001)    62 @  2.000000000000000E+04              /* J =  1: 62 */
(PID.TID 0000.0001)     ;
(PID.TID 0000.0001) dyC =  /* dyC(:,1,:,1) ( units: m ) */
(PID.TID 0000.0001)    62 @  2.000000000000000E+04              /* I =  1: 62 */
(PID.TID 0000.0001)     ;
(PID.TID 0000.0001) dyC =  /* dyC(1,:,1,:) ( units: m ) */
(PID.TID 0000.0001)    62 @  2.000000000000000E+04              /* J =  1: 62 */
(PID.TID 0000.0001)     ;
(PID.TID 0000.0001) dxV =  /* dxV(:,1,:,1) ( units: m ) */
(PID.TID 0000.0001)    62 @  2.000000000000000E+04              /* I =  1: 62 */
(PID.TID 0000.0001)     ;
(PID.TID 0000.0001) dxV =  /* dxV(1,:,1,:) ( units: m ) */
(PID.TID 0000.0001)    62 @  2.000000000000000E+04              /* J =  1: 62 */
(PID.TID 0000.0001)     ;
(PID.TID 0000.0001) dyU =  /* dyU(:,1,:,1) ( units: m ) */
(PID.TID 0000.0001)    62 @  2.000000000000000E+04              /* I =  1: 62 */
(PID.TID 0000.0001)     ;
(PID.TID 0000.0001) dyU =  /* dyU(1,:,1,:) ( units: m ) */
(PID.TID 0000.0001)    62 @  2.000000000000000E+04              /* J =  1: 62 */
(PID.TID 0000.0001)     ;
(PID.TID 0000.0001) rA  =  /* rA (:,1,:,1) ( units: m^2 ) */
(PID.TID 0000.0001)    62 @  4.000000000000000E+08              /* I =  1: 62 */
(PID.TID 0000.0001)     ;
(PID.TID 0000.0001) rA  =  /* rA (1,:,1,:) ( units: m^2 ) */
(PID.TID 0000.0001)    62 @  4.000000000000000E+08              /* J =  1: 62 */
(PID.TID 0000.0001)     ;
(PID.TID 0000.0001) rAw =  /* rAw(:,1,:,1) ( units: m^2 ) */
(PID.TID 0000.0001)    62 @  4.000000000000000E+08              /* I =  1: 62 */
(PID.TID 0000.0001)     ;
(PID.TID 0000.0001) rAw =  /* rAw(1,:,1,:) ( units: m^2 ) */
(PID.TID 0000.0001)    62 @  4.000000000000000E+08              /* J =  1: 62 */
(PID.TID 0000.0001)     ;
(PID.TID 0000.0001) rAs =  /* rAs(:,1,:,1) ( units: m^2 ) */
(PID.TID 0000.0001)    62 @  4.000000000000000E+08              /* I =  1: 62 */
(PID.TID 0000.0001)     ;
(PID.TID 0000.0001) rAs =  /* rAs(1,:,1,:) ( units: m^2 ) */
(PID.TID 0000.0001)    62 @  4.000000000000000E+08              /* J =  1: 62 */
(PID.TID 0000.0001)     ;
(PID.TID 0000.0001) globalArea = /* Integrated horizontal Area (m^2) */
(PID.TID 0000.0001)                 1.440000000000000E+12
(PID.TID 0000.0001)     ;
(PID.TID 0000.0001) // =======================================================
(PID.TID 0000.0001) // End of Model config. summary
(PID.TID 0000.0001) // =======================================================
(PID.TID 0000.0001) 
(PID.TID 0000.0001) == Packages configuration : Check & print summary ==
(PID.TID 0000.0001) 
(PID.TID 0000.0001) // =======================================================
(PID.TID 0000.0001) // Check Model config. (CONFIG_CHECK):
(PID.TID 0000.0001) // CONFIG_CHECK : Normal End
(PID.TID 0000.0001) // =======================================================
(PID.TID 0000.0001) 
(PID.TID 0000.0001) Start initial hydrostatic pressure computation
(PID.TID 0000.0001) Pressure is predetermined for buoyancyRelation OCEANIC
(PID.TID 0000.0001) 
(PID.TID 0000.0001)  MDS_READ_FIELD: opening global file: windx_cosy.bin
(PID.TID 0000.0001) // =======================================================
(PID.TID 0000.0001) // Model current state
(PID.TID 0000.0001) // =======================================================
(PID.TID 0000.0001) 
(PID.TID 0000.0001) // =======================================================
(PID.TID 0000.0001) // Begin MONITOR dynamic field statistics
(PID.TID 0000.0001) // =======================================================
(PID.TID 0000.0001) %MON time_tsnumber                =                     0
(PID.TID 0000.0001) %MON time_secondsf                =   0.0000000000000E+00
(PID.TID 0000.0001) %MON dynstat_eta_max              =   0.0000000000000E+00
(PID.TID 0000.0001) %MON dynstat_eta_min              =   0.0000000000000E+00
(PID.TID 0000.0001) %MON dynstat_eta_mean             =   0.0000000000000E+00
(PID.TID 0000.0001) %MON dynstat_eta_sd               =   0.0000000000000E+00
(PID.TID 0000.0001) %MON dynstat_eta_del2             =   0.0000000000000E+00
(PID.TID 0000.0001) %MON dynstat_uvel_max             =   0.0000000000000E+00
(PID.TID 0000.0001) %MON dynstat_uvel_min             =   0.0000000000000E+00
(PID.TID 0000.0001) %MON dynstat_uvel_mean            =   0.0000000000000E+00
(PID.TID 0000.0001) %MON dynstat_uvel_sd              =   0.0000000000000E+00
(PID.TID 0000.0001) %MON dynstat_uvel_del2            =   0.0000000000000E+00
(PID.TID 0000.0001) %MON dynstat_vvel_max             =   0.0000000000000E+00
(PID.TID 0000.0001) %MON dynstat_vvel_min             =   0.0000000000000E+00
(PID.TID 0000.0001) %MON dynstat_vvel_mean            =   0.0000000000000E+00
(PID.TID 0000.0001) %MON dynstat_vvel_sd              =   0.0000000000000E+00
(PID.TID 0000.0001) %MON dynstat_vvel_del2            =   0.0000000000000E+00
(PID.TID 0000.0001) %MON dynstat_wvel_max             =   0.0000000000000E+00
(PID.TID 0000.0001) %MON dynstat_wvel_min             =   0.0000000000000E+00
(PID.TID 0000.0001) %MON dynstat_wvel_mean            =   0.0000000000000E+00
(PID.TID 0000.0001) %MON dynstat_wvel_sd              =   0.0000000000000E+00
(PID.TID 0000.0001) %MON dynstat_wvel_del2            =   0.0000000000000E+00
(PID.TID 0000.0001) %MON dynstat_theta_max            =   2.0000000000000E+01
(PID.TID 0000.0001) %MON dynstat_theta_min            =   2.0000000000000E+01
(PID.TID 0000.0001) %MON dynstat_theta_mean           =   2.0000000000000E+01
(PID.TID 0000.0001) %MON dynstat_theta_sd             =   0.0000000000000E+00
(PID.TID 0000.0001) %MON dynstat_theta_del2           =   0.0000000000000E+00
(PID.TID 0000.0001) %MON dynstat_salt_max             =   3.0000000000000E+01
(PID.TID 0000.0001) %MON dynstat_salt_min             =   3.0000000000000E+01
(PID.TID 0000.0001) %MON dynstat_salt_mean            =   3.0000000000000E+01
(PID.TID 0000.0001) %MON dynstat_salt_sd              =   0.0000000000000E+00
(PID.TID 0000.0001) %MON dynstat_salt_del2            =   0.0000000000000E+00
(PID.TID 0000.0001) %MON trAdv_CFL_u_max              =   0.0000000000000E+00
(PID.TID 0000.0001) %MON trAdv_CFL_v_max              =   0.0000000000000E+00
(PID.TID 0000.0001) %MON trAdv_CFL_w_max              =   0.0000000000000E+00
(PID.TID 0000.0001) %MON advcfl_uvel_max              =   0.0000000000000E+00
(PID.TID 0000.0001) %MON advcfl_vvel_max              =   0.0000000000000E+00
(PID.TID 0000.0001) %MON advcfl_wvel_max              =   0.0000000000000E+00
(PID.TID 0000.0001) %MON advcfl_W_hf_max              =   0.0000000000000E+00
(PID.TID 0000.0001) %MON pe_b_mean                    =   0.0000000000000E+00
(PID.TID 0000.0001) %MON ke_max                       =   0.0000000000000E+00
(PID.TID 0000.0001) %MON ke_mean                      =   0.0000000000000E+00
(PID.TID 0000.0001) %MON ke_vol                       =   7.2000000000000E+15
(PID.TID 0000.0001) %MON vort_r_min                   =   0.0000000000000E+00
(PID.TID 0000.0001) %MON vort_r_max                   =   0.0000000000000E+00
(PID.TID 0000.0001) %MON vort_a_mean                  =   1.0600000000000E-04
(PID.TID 0000.0001) %MON vort_a_sd                    =   3.5177554171049E-06
(PID.TID 0000.0001) %MON vort_p_mean                  =   1.1130000000000E-04
(PID.TID 0000.0001) %MON vort_p_sd                    =   4.0927537591861E-05
(PID.TID 0000.0001) %MON surfExpan_theta_mean         =   0.0000000000000E+00
(PID.TID 0000.0001) %MON surfExpan_salt_mean          =   0.0000000000000E+00
(PID.TID 0000.0001) // =======================================================
(PID.TID 0000.0001) // End MONITOR dynamic field statistics
(PID.TID 0000.0001) // =======================================================
(PID.TID 0000.0001) SOLVE_FOR_PRESSURE: putPmEinXvector =    F
 cg2d: Sum(rhs),rhsMax =   0.00000000000000E+00  3.99862915277481E-04
 cg2d: Sum(rhs),rhsMax =  -2.88657986402541E-15  4.51170334505832E-04
 cg2d: Sum(rhs),rhsMax =   8.40966296600243E-10  4.69500491569728E-04
 cg2d: Sum(rhs),rhsMax =   1.07877695665337E-09  4.87249555766483E-04
 cg2d: Sum(rhs),rhsMax =   1.31611976872392E-09  5.03746102821348E-04
 cg2d: Sum(rhs),rhsMax =   1.64350322240381E-09  5.20990584498866E-04
 cg2d: Sum(rhs),rhsMax =   1.76783487848553E-09  5.41620638207755E-04
 cg2d: Sum(rhs),rhsMax =   1.86995319229055E-09  5.66631268108299E-04
 cg2d: Sum(rhs),rhsMax =   2.20969642583668E-09  5.96007458958334E-04
 cg2d: Sum(rhs),rhsMax =   2.43778208730561E-09  6.28629464078631E-04
 cg2d: Sum(rhs),rhsMax =   2.61554355951432E-09  6.63144597717182E-04
 cg2d: Sum(rhs),rhsMax =   2.81093792686704E-09  6.98566979095827E-04
 cg2d: Sum(rhs),rhsMax =   2.91806234731240E-09  7.34769350148957E-04
 cg2d: Sum(rhs),rhsMax =   2.97473279342597E-09  7.71589635813405E-04
 cg2d: Sum(rhs),rhsMax =   3.06321235044038E-09  8.08875090026339E-04
 cg2d: Sum(rhs),rhsMax =   3.12053261009027E-09  8.47266762713712E-04
 cg2d: Sum(rhs),rhsMax =   3.15377751691770E-09  8.86276671641232E-04
 cg2d: Sum(rhs),rhsMax =   3.28689120365766E-09  9.26183146013228E-04
 cg2d: Sum(rhs),rhsMax =   3.41774553103136E-09  9.66364645886002E-04
 cg2d: Sum(rhs),rhsMax =   3.53712209522072E-09  1.00746164522735E-03
 cg2d: Sum(rhs),rhsMax =   3.64838670385836E-09  1.04854382695000E-03
 cg2d: Sum(rhs),rhsMax =   3.75327646739976E-09  1.09012182262526E-03
 cg2d: Sum(rhs),rhsMax =   3.85397874724802E-09  1.13217706579594E-03
 cg2d: Sum(rhs),rhsMax =   3.95303750844178E-09  1.17424954864214E-03
 cg2d: Sum(rhs),rhsMax =   4.04386579777594E-09  1.21650277094484E-03
 cg2d: Sum(rhs),rhsMax =   4.13672379684371E-09  1.25950318840236E-03
 cg2d: Sum(rhs),rhsMax =   4.22935680921555E-09  1.30252916964535E-03
 cg2d: Sum(rhs),rhsMax =   4.32082100654263E-09  1.34557650707381E-03
 cg2d: Sum(rhs),rhsMax =   4.60230656362803E-09  1.38864253343555E-03
 cg2d: Sum(rhs),rhsMax =   4.82204684515430E-09  1.43235655662721E-03
 cg2d: Sum(rhs),rhsMax =   4.85659976123820E-09  1.47621813961206E-03
 cg2d: Sum(rhs),rhsMax =   4.85299025965169E-09  1.52010008262466E-03
 cg2d: Sum(rhs),rhsMax =   6.27768201311163E-09  1.56400315347159E-03
 cg2d: Sum(rhs),rhsMax =   6.46340123089395E-09  1.60792760924531E-03
 cg2d: Sum(rhs),rhsMax =   6.65852614711859E-09  1.65187334335572E-03
 cg2d: Sum(rhs),rhsMax =   7.20947990195953E-09  1.69642980407789E-03
 cg2d: Sum(rhs),rhsMax =   8.38903674305058E-09  1.74105931085125E-03
 cg2d: Sum(rhs),rhsMax =   1.04441049975090E-08  1.78571011547657E-03
 cg2d: Sum(rhs),rhsMax =   1.22080621722809E-08  1.83038228923236E-03
 cg2d: Sum(rhs),rhsMax =   1.39413942612521E-08  1.87507593976622E-03
 cg2d: Sum(rhs),rhsMax =   1.57349214491287E-08  1.91979115604797E-03
 cg2d: Sum(rhs),rhsMax =   1.75585309902804E-08  1.96452799234155E-03
 cg2d: Sum(rhs),rhsMax =   1.93355557120967E-08  2.00928647687812E-03
 cg2d: Sum(rhs),rhsMax =   2.10062687244772E-08  2.05425063533071E-03
 cg2d: Sum(rhs),rhsMax =   2.25518260732471E-08  2.09957608906101E-03
 cg2d: Sum(rhs),rhsMax =   2.39888558739576E-08  2.14492358650655E-03
 cg2d: Sum(rhs),rhsMax =   2.53418650369985E-08  2.19029316947518E-03
 cg2d: Sum(rhs),rhsMax =   2.66303897267228E-08  2.23568488290034E-03
 cg2d: Sum(rhs),rhsMax =   2.78642951212493E-08  2.28109877065993E-03
 cg2d: Sum(rhs),rhsMax =   2.90459565843726E-08  2.32653487362518E-03
 cg2d: Sum(rhs),rhsMax =   3.01747205833092E-08  2.37199322979781E-03
 cg2d: Sum(rhs),rhsMax =   3.12495982146554E-08  2.41747387550876E-03
 cg2d: Sum(rhs),rhsMax =   3.22726757123748E-08  2.46297684666210E-03
 cg2d: Sum(rhs),rhsMax =   3.32468165914479E-08  2.50850217947440E-03
 cg2d: Sum(rhs),rhsMax =   3.41754694821450E-08  2.55404991064892E-03
 cg2d: Sum(rhs),rhsMax =   3.50622830352920E-08  2.59962007719303E-03
 cg2d: Sum(rhs),rhsMax =   3.62029956568755E-08  2.64521272024968E-03
 cg2d: Sum(rhs),rhsMax =   3.72944944648790E-08  2.69112218962099E-03
 cg2d: Sum(rhs),rhsMax =   3.83410438953291E-08  2.73716470219982E-03
 cg2d: Sum(rhs),rhsMax =   3.93462856324023E-08  2.78323004496166E-03
 cg2d: Sum(rhs),rhsMax =   4.03119886360770E-08  2.82931825395228E-03
 cg2d: Sum(rhs),rhsMax =   4.12406357119810E-08  2.87542936492494E-03
 cg2d: Sum(rhs),rhsMax =   4.21336064648781E-08  2.92156341336712E-03
 cg2d: Sum(rhs),rhsMax =   4.29928953687986E-08  2.96772043452369E-03
 cg2d: Sum(rhs),rhsMax =   4.38204016683930E-08  3.01390046341345E-03
 cg2d: Sum(rhs),rhsMax =   4.46173636509117E-08  3.06010353484216E-03
 cg2d: Sum(rhs),rhsMax =   4.53855607818188E-08  3.10632968341188E-03
 cg2d: Sum(rhs),rhsMax =   4.61256272274446E-08  3.15257894352393E-03
 cg2d: Sum(rhs),rhsMax =   4.68400006281566E-08  3.19885134937376E-03
 cg2d: Sum(rhs),rhsMax =   4.75291318663418E-08  3.24514693494116E-03
 cg2d: Sum(rhs),rhsMax =   4.81942849100969E-08  3.29146573397920E-03
 cg2d: Sum(rhs),rhsMax =   4.88362929818020E-08  3.33780778000593E-03
(PID.TID 0000.0001)      cg2d_init_res =   1.30177401622895E-01
(PID.TID 0000.0001)      cg2d_iters(min,last) =      -1      86
(PID.TID 0000.0001)      cg2d_last_res =   8.28941150798862E-08
(PID.TID 0000.0001) // =======================================================
(PID.TID 0000.0001) // Begin MONITOR dynamic field statistics
(PID.TID 0000.0001) // =======================================================
(PID.TID 0000.0001) %MON time_tsnumber                =                    72
(PID.TID 0000.0001) %MON time_secondsf                =   8.6400000000000E+04
(PID.TID 0000.0001) %MON dynstat_eta_max              =   2.3594648617058E-03
(PID.TID 0000.0001) %MON dynstat_eta_min              =  -2.6307094545991E-03
(PID.TID 0000.0001) %MON dynstat_eta_mean             =  -8.3685177346071E-13
(PID.TID 0000.0001) %MON dynstat_eta_sd               =   1.2732662797511E-03
(PID.TID 0000.0001) %MON dynstat_eta_del2             =   1.6630223573546E-07
(PID.TID 0000.0001) %MON dynstat_uvel_max             =   1.0308255372908E-03
(PID.TID 0000.0001) %MON dynstat_uvel_min             =  -1.0306860970633E-03
(PID.TID 0000.0001) %MON dynstat_uvel_mean            =  -6.7096841153595E-08
(PID.TID 0000.0001) %MON dynstat_uvel_sd              =   5.4870332586846E-04
(PID.TID 0000.0001) %MON dynstat_uvel_del2            =   1.9153509943443E-07
(PID.TID 0000.0001) %MON dynstat_vvel_max             =   1.5340084208399E-03
(PID.TID 0000.0001) %MON dynstat_vvel_min             =  -1.3666436990415E-03
(PID.TID 0000.0001) %MON dynstat_vvel_mean            =  -3.2056316610294E-08
(PID.TID 0000.0001) %MON dynstat_vvel_sd              =   5.6029113274553E-04
(PID.TID 0000.0001) %MON dynstat_vvel_del2            =   2.5379065629911E-07
(PID.TID 0000.0001) %MON dynstat_wvel_max             =   2.7539776511603E-08
(PID.TID 0000.0001) %MON dynstat_wvel_min             =  -2.2354489096288E-08
(PID.TID 0000.0001) %MON dynstat_wvel_mean            =   1.5184014046099E-22
(PID.TID 0000.0001) %MON dynstat_wvel_sd              =   1.4511602629796E-08
(PID.TID 0000.0001) %MON dynstat_wvel_del2            =   1.9819785040304E-12
(PID.TID 0000.0001) %MON dynstat_theta_max            =   2.0000000000000E+01
(PID.TID 0000.0001) %MON dynstat_theta_min            =   2.0000000000000E+01
(PID.TID 0000.0001) %MON dynstat_theta_mean           =   2.0000000000000E+01
(PID.TID 0000.0001) %MON dynstat_theta_sd             =   0.0000000000000E+00
(PID.TID 0000.0001) %MON dynstat_theta_del2           =   0.0000000000000E+00
(PID.TID 0000.0001) %MON dynstat_salt_max             =   3.0000000000000E+01
(PID.TID 0000.0001) %MON dynstat_salt_min             =   3.0000000000000E+01
(PID.TID 0000.0001) %MON dynstat_salt_mean            =   3.0000000000000E+01
(PID.TID 0000.0001) %MON dynstat_salt_sd              =   0.0000000000000E+00
(PID.TID 0000.0001) %MON dynstat_salt_del2            =   0.0000000000000E+00
(PID.TID 0000.0001) %MON trAdv_CFL_u_max              =   6.0994615119355E-05
(PID.TID 0000.0001) %MON trAdv_CFL_v_max              =   9.0695224945262E-05
(PID.TID 0000.0001) %MON trAdv_CFL_w_max              =   6.6090528803375E-09
(PID.TID 0000.0001) %MON advcfl_uvel_max              =   6.1849532237448E-05
(PID.TID 0000.0001) %MON advcfl_vvel_max              =   9.2040505250392E-05
(PID.TID 0000.0001) %MON advcfl_wvel_max              =   1.3219092725569E-08
(PID.TID 0000.0001) %MON advcfl_W_hf_max              =   0.0000000000000E+00
(PID.TID 0000.0001) %MON pe_b_mean                    =   1.5904040857874E-09
(PID.TID 0000.0001) %MON ke_max                       =   1.1750313593380E-06
(PID.TID 0000.0001) %MON ke_mean                      =   3.0237573690114E-07
(PID.TID 0000.0001) %MON ke_vol                       =   7.2000000000000E+15
(PID.TID 0000.0001) %MON vort_r_min                   =  -5.1307889676547E-09
(PID.TID 0000.0001) %MON vort_r_max                   =   7.5310140971456E-08
(PID.TID 0000.0001) %MON vort_a_mean                  =   1.0600000000000E-04
(PID.TID 0000.0001) %MON vort_a_sd                    =   3.5177740303073E-06
(PID.TID 0000.0001) %MON vort_p_mean                  =   1.1130000000000E-04
(PID.TID 0000.0001) %MON vort_p_sd                    =   4.0948086848054E-05
(PID.TID 0000.0001) %MON surfExpan_theta_mean         =   2.9552261872191E-21
(PID.TID 0000.0001) %MON surfExpan_salt_mean          =   4.3308369236507E-21
(PID.TID 0000.0001) // =======================================================
(PID.TID 0000.0001) // End MONITOR dynamic field statistics
(PID.TID 0000.0001) // =======================================================
 cg2d: Sum(rhs),rhsMax =   4.94567276160263E-08  3.38417310630147E-03
 cg2d: Sum(rhs),rhsMax =   5.00563276314980E-08  3.43056174590900E-03
 cg2d: Sum(rhs),rhsMax =   5.06360246302351E-08  3.47697373164034E-03
 cg2d: Sum(rhs),rhsMax =   5.11966593286228E-08  3.52340909608139E-03
 cg2d: Sum(rhs),rhsMax =   5.17387804405134E-08  3.56986787159737E-03
 cg2d: Sum(rhs),rhsMax =   5.22637860142505E-08  3.61635009033560E-03
 cg2d: Sum(rhs),rhsMax =   5.27720017684530E-08  3.66285578422663E-03
 cg2d: Sum(rhs),rhsMax =   5.32643445946834E-08  3.70938498498317E-03
 cg2d: Sum(rhs),rhsMax =   5.37413647958007E-08  3.75593772409920E-03
 cg2d: Sum(rhs),rhsMax =   5.42034793230006E-08  3.80251403284773E-03
 cg2d: Sum(rhs),rhsMax =   5.46496629824644E-08  3.84926062181762E-03
 cg2d: Sum(rhs),rhsMax =   5.50804637039493E-08  3.89616948210657E-03
 cg2d: Sum(rhs),rhsMax =   5.54984507031286E-08  3.94310218213781E-03
 cg2d: Sum(rhs),rhsMax =   5.59038767430908E-08  3.99005875243154E-03
 cg2d: Sum(rhs),rhsMax =   5.62975985413106E-08  4.03703922328901E-03
 cg2d: Sum(rhs),rhsMax =   5.66800003182211E-08  4.08404362479349E-03
 cg2d: Sum(rhs),rhsMax =   5.70516953055100E-08  4.13107198681173E-03
 cg2d: Sum(rhs),rhsMax =   5.74127666033708E-08  4.17812433899395E-03
 cg2d: Sum(rhs),rhsMax =   5.77638706901473E-08  4.22520071077445E-03
 cg2d: Sum(rhs),rhsMax =   5.81053131894216E-08  4.27230113137205E-03
 cg2d: Sum(rhs),rhsMax =   5.84377533689728E-08  4.31942562978997E-03
 cg2d: Sum(rhs),rhsMax =   5.87610630049806E-08  4.36657423481667E-03
 cg2d: Sum(rhs),rhsMax =   5.90761257655836E-08  4.41374697502585E-03
 cg2d: Sum(rhs),rhsMax =   5.93828844430710E-08  4.46094387877707E-03
 cg2d: Sum(rhs),rhsMax =   5.96820555094635E-08  4.50816497421667E-03
 cg2d: Sum(rhs),rhsMax =   5.99736217077318E-08  4.55541028927784E-03
 cg2d: Sum(rhs),rhsMax =   6.02579574501827E-08  4.60267985168197E-03
 cg2d: Sum(rhs),rhsMax =   6.05356151907321E-08  4.64997368893802E-03
 cg2d: Sum(rhs),rhsMax =   6.08063173840323E-08  4.69729182834460E-03
 cg2d: Sum(rhs),rhsMax =   6.10707977764802E-08  4.74463429698915E-03
 cg2d: Sum(rhs),rhsMax =   6.13291451269371E-08  4.79200112174913E-03
 cg2d: Sum(rhs),rhsMax =   6.15816298996097E-08  4.83939232929207E-03
 cg2d: Sum(rhs),rhsMax =   6.18284934673918E-08  4.88680794607674E-03
 cg2d: Sum(rhs),rhsMax =   6.20697426095829E-08  4.93424799835260E-03
 cg2d: Sum(rhs),rhsMax =   6.23058629047740E-08  4.98171251216116E-03
 cg2d: Sum(rhs),rhsMax =   6.25371844847206E-08  5.02920151333627E-03
 cg2d: Sum(rhs),rhsMax =   6.27638038243339E-08  5.07671502750454E-03
 cg2d: Sum(rhs),rhsMax =   6.29856787247307E-08  5.12425308008570E-03
 cg2d: Sum(rhs),rhsMax =   6.32030978994086E-08  5.17181569629323E-03
 cg2d: Sum(rhs),rhsMax =   6.34161831589153E-08  5.21940290113532E-03
 cg2d: Sum(rhs),rhsMax =   6.36255186713813E-08  5.26701471941460E-03
 cg2d: Sum(rhs),rhsMax =   6.38309083124400E-08  5.31465117572921E-03
 cg2d: Sum(rhs),rhsMax =   6.40323866481912E-08  5.36231229447270E-03
 cg2d: Sum(rhs),rhsMax =   6.42304396007015E-08  5.40999809983548E-03
 cg2d: Sum(rhs),rhsMax =   6.44251078665836E-08  5.45770861580384E-03
 cg2d: Sum(rhs),rhsMax =   6.46166510836349E-08  5.50544386616207E-03
 cg2d: Sum(rhs),rhsMax =   6.48048585124433E-08  5.55320387449182E-03
 cg2d: Sum(rhs),rhsMax =   6.49899473629395E-08  5.60098866417304E-03
 cg2d: Sum(rhs),rhsMax =   6.51721824727544E-08  5.64879825838429E-03
 cg2d: Sum(rhs),rhsMax =   6.53520944521660E-08  5.69663268010307E-03
 cg2d: Sum(rhs),rhsMax =   6.55292753575301E-08  5.74449195210714E-03
 cg2d: Sum(rhs),rhsMax =   6.57038457954964E-08  5.79237609697374E-03
 cg2d: Sum(rhs),rhsMax =   6.58760878919501E-08  5.84028513708113E-03
 cg2d: Sum(rhs),rhsMax =   6.60463209513698E-08  5.88821909460842E-03
 cg2d: Sum(rhs),rhsMax =   6.62141286821884E-08  5.93617799153615E-03
 cg2d: Sum(rhs),rhsMax =   6.63799029124688E-08  5.98416184964724E-03
 cg2d: Sum(rhs),rhsMax =   6.70934496189990E-08  6.03217070581862E-03
 cg2d: Sum(rhs),rhsMax =   6.77985674949790E-08  6.08020455131764E-03
 cg2d: Sum(rhs),rhsMax =   6.84967285493384E-08  6.12826342152705E-03
 cg2d: Sum(rhs),rhsMax =   6.91873806718535E-08  6.17634733817366E-03
 cg2d: Sum(rhs),rhsMax =   6.98711970479899E-08  6.22445632199357E-03
 cg2d: Sum(rhs),rhsMax =   7.05478732266761E-08  6.27259039356895E-03
 cg2d: Sum(rhs),rhsMax =   7.12182668774451E-08  6.32074957329925E-03
 cg2d: Sum(rhs),rhsMax =   7.18821319414743E-08  6.36893388139891E-03
 cg2d: Sum(rhs),rhsMax =   7.25396107490372E-08  6.41714333789201E-03
 cg2d: Sum(rhs),rhsMax =   7.31914812485655E-08  6.46537796260882E-03
 cg2d: Sum(rhs),rhsMax =   7.38371295162712E-08  6.51363777518561E-03
 cg2d: Sum(rhs),rhsMax =   7.44771461976337E-08  6.56192279506527E-03
 cg2d: Sum(rhs),rhsMax =   7.51117032867996E-08  6.61023304149847E-03
 cg2d: Sum(rhs),rhsMax =   7.57410003621867E-08  6.65856853354418E-03
 cg2d: Sum(rhs),rhsMax =   7.63649591422298E-08  6.70692929007079E-03
 cg2d: Sum(rhs),rhsMax =   7.69838969993594E-08  6.75531532975643E-03
(PID.TID 0000.0001)      cg2d_init_res =   6.14943273565512E-02
(PID.TID 0000.0001)      cg2d_iters(min,last) =      -1      85
(PID.TID 0000.0001)      cg2d_last_res =   9.19381417095047E-08
(PID.TID 0000.0001) // =======================================================
(PID.TID 0000.0001) // Begin MONITOR dynamic field statistics
(PID.TID 0000.0001) // =======================================================
(PID.TID 0000.0001) %MON time_tsnumber                =                   144
(PID.TID 0000.0001) %MON time_secondsf                =   1.7280000000000E+05
(PID.TID 0000.0001) %MON dynstat_eta_max              =   4.7334977109867E-03
(PID.TID 0000.0001) %MON dynstat_eta_min              =  -4.5401286995198E-03
(PID.TID 0000.0001) %MON dynstat_eta_mean             =  -2.6397789303462E-12
(PID.TID 0000.0001) %MON dynstat_eta_sd               =   2.5085365661142E-03
(PID.TID 0000.0001) %MON dynstat_eta_del2             =   3.4066498240909E-07
(PID.TID 0000.0001) %MON dynstat_uvel_max             =   2.0507678289472E-03
(PID.TID 0000.0001) %MON dynstat_uvel_min             =  -2.0507194804973E-03
(PID.TID 0000.0001) %MON dynstat_uvel_mean            =  -1.3250164621630E-07
(PID.TID 0000.0001) %MON dynstat_uvel_sd              =   1.0880363015914E-03
(PID.TID 0000.0001) %MON dynstat_uvel_del2            =   6.4899868368782E-07
(PID.TID 0000.0001) %MON dynstat_vvel_max             =   3.2257293843563E-03
(PID.TID 0000.0001) %MON dynstat_vvel_min             =  -2.5570312052660E-03
(PID.TID 0000.0001) %MON dynstat_vvel_mean            =  -3.1754198549127E-08
(PID.TID 0000.0001) %MON dynstat_vvel_sd              =   1.1130144959610E-03
(PID.TID 0000.0001) %MON dynstat_vvel_del2            =   8.9959388784635E-07
(PID.TID 0000.0001) %MON dynstat_wvel_max             =   2.7684577421269E-08
(PID.TID 0000.0001) %MON dynstat_wvel_min             =  -2.1838017424279E-08
(PID.TID 0000.0001) %MON dynstat_wvel_mean            =  -4.8077911035054E-23
(PID.TID 0000.0001) %MON dynstat_wvel_sd              =   1.4435130241928E-08
(PID.TID 0000.0001) %MON dynstat_wvel_del2            =   2.2289975493414E-12
(PID.TID 0000.0001) %MON dynstat_theta_max            =   2.0000000000000E+01
(PID.TID 0000.0001) %MON dynstat_theta_min            =   2.0000000000000E+01
(PID.TID 0000.0001) %MON dynstat_theta_mean           =   2.0000000000000E+01
(PID.TID 0000.0001) %MON dynstat_theta_sd             =   0.0000000000000E+00
(PID.TID 0000.0001) %MON dynstat_theta_del2           =   0.0000000000000E+00
(PID.TID 0000.0001) %MON dynstat_salt_max             =   3.0000000000000E+01
(PID.TID 0000.0001) %MON dynstat_salt_min             =   3.0000000000000E+01
(PID.TID 0000.0001) %MON dynstat_salt_mean            =   3.0000000000000E+01
(PID.TID 0000.0001) %MON dynstat_salt_sd              =   0.0000000000000E+00
(PID.TID 0000.0001) %MON dynstat_salt_del2            =   0.0000000000000E+00
(PID.TID 0000.0001) %MON trAdv_CFL_u_max              =   1.2219519936714E-04
(PID.TID 0000.0001) %MON trAdv_CFL_v_max              =   1.9207313844294E-04
(PID.TID 0000.0001) %MON trAdv_CFL_w_max              =   6.6434968405498E-09
(PID.TID 0000.0001) %MON advcfl_uvel_max              =   1.2304606973683E-04
(PID.TID 0000.0001) %MON advcfl_vvel_max              =   1.9354376306138E-04
(PID.TID 0000.0001) %MON advcfl_wvel_max              =   1.3288597162209E-08
(PID.TID 0000.0001) %MON advcfl_W_hf_max              =   0.0000000000000E+00
(PID.TID 0000.0001) %MON pe_b_mean                    =   6.1731933451650E-09
(PID.TID 0000.0001) %MON ke_max                       =   5.1956813366018E-06
(PID.TID 0000.0001) %MON ke_mean                      =   1.1911236045128E-06
(PID.TID 0000.0001) %MON ke_vol                       =   7.2000000000000E+15
(PID.TID 0000.0001) %MON vort_r_min                   =  -1.1477734938475E-08
(PID.TID 0000.0001) %MON vort_r_max                   =   1.4857688365616E-07
(PID.TID 0000.0001) %MON vort_a_mean                  =   1.0600000000000E-04
(PID.TID 0000.0001) %MON vort_a_sd                    =   3.5178216042199E-06
(PID.TID 0000.0001) %MON vort_p_mean                  =   1.1130000000000E-04
(PID.TID 0000.0001) %MON vort_p_sd                    =   4.0965558779648E-05
(PID.TID 0000.0001) %MON surfExpan_theta_mean         =  -1.0718142422977E-21
(PID.TID 0000.0001) %MON surfExpan_salt_mean          =  -1.6453011792489E-21
(PID.TID 0000.0001) // =======================================================
(PID.TID 0000.0001) // End MONITOR dynamic field statistics
(PID.TID 0000.0001) // =======================================================
 cg2d: Sum(rhs),rhsMax =   7.75979607306465E-08  6.80372667108900E-03
 cg2d: Sum(rhs),rhsMax =   7.82066209535637E-08  6.85223663847644E-03
 cg2d: Sum(rhs),rhsMax =   7.88094814433912E-08  6.90086432940079E-03
 cg2d: Sum(rhs),rhsMax =   7.94078727260963E-08  6.94951747954466E-03
 cg2d: Sum(rhs),rhsMax =   8.00021214240887E-08  6.99819610665825E-03
 cg2d: Sum(rhs),rhsMax =   8.05921526909892E-08  7.04690022830395E-03
 cg2d: Sum(rhs),rhsMax =   8.11779356643325E-08  7.09562986185548E-03
 cg2d: Sum(rhs),rhsMax =   8.17601293707712E-08  7.14438502449972E-03
 cg2d: Sum(rhs),rhsMax =   8.23384934999297E-08  7.19316573323572E-03
 cg2d: Sum(rhs),rhsMax =   8.29132572764332E-08  7.24197200487653E-03
 cg2d: Sum(rhs),rhsMax =   8.34844957071229E-08  7.29080385604840E-03
 cg2d: Sum(rhs),rhsMax =   8.40519557634978E-08  7.33966130319176E-03
 cg2d: Sum(rhs),rhsMax =   8.46165956591011E-08  7.38854436256199E-03
 cg2d: Sum(rhs),rhsMax =   8.51776651867447E-08  7.43745305022960E-03
 cg2d: Sum(rhs),rhsMax =   8.57357969376304E-08  7.48638738207978E-03
 cg2d: Sum(rhs),rhsMax =   8.62909210874035E-08  7.53534737381432E-03
 cg2d: Sum(rhs),rhsMax =   8.68435611096896E-08  7.58433304095145E-03
 cg2d: Sum(rhs),rhsMax =   8.73932334156252E-08  7.63334439882513E-03
 cg2d: Sum(rhs),rhsMax =   8.79399379948020E-08  7.68238146258753E-03
 cg2d: Sum(rhs),rhsMax =   8.84845096915665E-08  7.73144424720812E-03
 cg2d: Sum(rhs),rhsMax =   8.90262651220136E-08  7.78053276747416E-03
 cg2d: Sum(rhs),rhsMax =   8.95659057129072E-08  7.82964703799140E-03
 cg2d: Sum(rhs),rhsMax =   9.01029663484543E-08  7.87878707318450E-03
 cg2d: Sum(rhs),rhsMax =   9.06377577436501E-08  7.92795288729761E-03
 cg2d: Sum(rhs),rhsMax =   9.11707278977714E-08  7.97714449439408E-03
 cg2d: Sum(rhs),rhsMax =   9.17013477930162E-08  8.02636190835782E-03
 cg2d: Sum(rhs),rhsMax =   9.22301073586623E-08  8.07560514289281E-03
 cg2d: Sum(rhs),rhsMax =   9.27570347475370E-08  8.12487421152437E-03
 cg2d: Sum(rhs),rhsMax =   9.32821095818437E-08  8.17416912759886E-03
 cg2d: Sum(rhs),rhsMax =   9.38054237585584E-08  8.22348990428446E-03
 cg2d: Sum(rhs),rhsMax =   9.43269904581101E-08  8.27283655457195E-03
 cg2d: Sum(rhs),rhsMax =   9.48468346969461E-08  8.32220909127376E-03
 cg2d: Sum(rhs),rhsMax =   9.53654493984768E-08  8.37160752702611E-03
 cg2d: Sum(rhs),rhsMax =   9.58822229894102E-08  8.42103187428815E-03
 cg2d: Sum(rhs),rhsMax =   9.63978595246162E-08  8.47048214534297E-03
 cg2d: Sum(rhs),rhsMax =   9.69122325566313E-08  8.51995835229772E-03
 cg2d: Sum(rhs),rhsMax =   9.74250472969562E-08  8.56946050708462E-03
 cg2d: Sum(rhs),rhsMax =   9.79370378337285E-08  8.61898862146022E-03
 cg2d: Sum(rhs),rhsMax =   9.84477713135423E-08  8.66854270700679E-03
 cg2d: Sum(rhs),rhsMax =   9.89572443224618E-08  8.71812277513207E-03
 cg2d: Sum(rhs),rhsMax =   9.94659104091439E-08  8.76772883707097E-03
 cg2d: Sum(rhs),rhsMax =   9.99737997334910E-08  8.81736090388376E-03
 cg2d: Sum(rhs),rhsMax =   1.00480465311040E-07  8.86701898645820E-03
 cg2d: Sum(rhs),rhsMax =   1.00986259830155E-07  8.91670309550977E-03
 cg2d: Sum(rhs),rhsMax =   1.01491596538397E-07  8.96641324158121E-03
 cg2d: Sum(rhs),rhsMax =   1.01996006021329E-07  9.01614943504340E-03
 cg2d: Sum(rhs),rhsMax =   1.02499774350465E-07  9.06591168609638E-03
 cg2d: Sum(rhs),rhsMax =   1.03002892685652E-07  9.11570000476839E-03
 cg2d: Sum(rhs),rhsMax =   1.03505322651340E-07  9.16551440091767E-03
 cg2d: Sum(rhs),rhsMax =   1.04007134342499E-07  9.21535488423154E-03
 cg2d: Sum(rhs),rhsMax =   1.04508605786729E-07  9.26522146422820E-03
 cg2d: Sum(rhs),rhsMax =   1.05009518244076E-07  9.31511415025517E-03
 cg2d: Sum(rhs),rhsMax =   1.05510267980891E-07  9.36503295149234E-03
 cg2d: Sum(rhs),rhsMax =   1.06010678704166E-07  9.41497787694956E-03
 cg2d: Sum(rhs),rhsMax =   1.06510944883342E-07  9.46494893546913E-03
 cg2d: Sum(rhs),rhsMax =   1.07010701636684E-07  9.51494613572508E-03
 cg2d: Sum(rhs),rhsMax =   1.07510357182788E-07  9.56496948622364E-03
 cg2d: Sum(rhs),rhsMax =   1.08009737622566E-07  9.61501899530445E-03
 cg2d: Sum(rhs),rhsMax =   1.08509159844894E-07  9.66509467113974E-03
 cg2d: Sum(rhs),rhsMax =   1.09008314253672E-07  9.71519652173554E-03
 cg2d: Sum(rhs),rhsMax =   1.09507493444710E-07  9.76532455493175E-03
 cg2d: Sum(rhs),rhsMax =   1.10006799988738E-07  9.81547877840232E-03
 cg2d: Sum(rhs),rhsMax =   1.10506184258785E-07  9.86565919965648E-03
 cg2d: Sum(rhs),rhsMax =   1.11005503629358E-07  9.91586582603805E-03
 cg2d: Sum(rhs),rhsMax =   1.11504964959291E-07  9.96609866472607E-03
 cg2d: Sum(rhs),rhsMax =   1.12004702946394E-07  1.00163577227360E-02
 cg2d: Sum(rhs),rhsMax =   1.12504476686148E-07  1.00666430069190E-02
 cg2d: Sum(rhs),rhsMax =   1.13004501887948E-07  1.01169545239628E-02
 cg2d: Sum(rhs),rhsMax =   1.13505154275551E-07  1.01672922803924E-02
 cg2d: Sum(rhs),rhsMax =   1.14005810902817E-07  1.02176562825693E-02
 cg2d: Sum(rhs),rhsMax =   1.14506747361798E-07  1.02680465366933E-02
 cg2d: Sum(rhs),rhsMax =   1.15008560824109E-07  1.03184630488022E-02
(PID.TID 0000.0001)      cg2d_init_res =   3.91903907184764E-02
(PID.TID 0000.0001)      cg2d_iters(min,last) =      -1      85
(PID.TID 0000.0001)      cg2d_last_res =   6.98014258699128E-08
(PID.TID 0000.0001) // =======================================================
(PID.TID 0000.0001) // Begin MONITOR dynamic field statistics
(PID.TID 0000.0001) // =======================================================
(PID.TID 0000.0001) %MON time_tsnumber                =                   216
(PID.TID 0000.0001) %MON time_secondsf                =   2.5920000000000E+05
(PID.TID 0000.0001) %MON dynstat_eta_max              =   7.1073192175894E-03
(PID.TID 0000.0001) %MON dynstat_eta_min              =  -6.4010256844485E-03
(PID.TID 0000.0001) %MON dynstat_eta_mean             =  -5.9885795927048E-12
(PID.TID 0000.0001) %MON dynstat_eta_sd               =   3.7403394005163E-03
(PID.TID 0000.0001) %MON dynstat_eta_del2             =   5.3534527855599E-07
(PID.TID 0000.0001) %MON dynstat_uvel_max             =   3.0689219338075E-03
(PID.TID 0000.0001) %MON dynstat_uvel_min             =  -3.0686301887691E-03
(PID.TID 0000.0001) %MON dynstat_uvel_mean            =  -1.9483002746082E-07
(PID.TID 0000.0001) %MON dynstat_uvel_sd              =   1.6164389830911E-03
(PID.TID 0000.0001) %MON dynstat_uvel_del2            =   1.2697623225620E-06
(PID.TID 0000.0001) %MON dynstat_vvel_max             =   5.0614033467823E-03
(PID.TID 0000.0001) %MON dynstat_vvel_min             =  -3.5646022003153E-03
(PID.TID 0000.0001) %MON dynstat_vvel_mean            =  -3.1194191800477E-08
(PID.TID 0000.0001) %MON dynstat_vvel_sd              =   1.6607808236716E-03
(PID.TID 0000.0001) %MON dynstat_vvel_del2            =   1.8015891425408E-06
(PID.TID 0000.0001) %MON dynstat_wvel_max             =   2.7932154188402E-08
(PID.TID 0000.0001) %MON dynstat_wvel_min             =  -2.1231889156643E-08
(PID.TID 0000.0001) %MON dynstat_wvel_mean            =  -5.5390046327375E-22
(PID.TID 0000.0001) %MON dynstat_wvel_sd              =   1.4341155120011E-08
(PID.TID 0000.0001) %MON dynstat_wvel_del2            =   2.5361151227101E-12
(PID.TID 0000.0001) %MON dynstat_theta_max            =   2.0000000000000E+01
(PID.TID 0000.0001) %MON dynstat_theta_min            =   2.0000000000000E+01
(PID.TID 0000.0001) %MON dynstat_theta_mean           =   2.0000000000000E+01
(PID.TID 0000.0001) %MON dynstat_theta_sd             =   0.0000000000000E+00
(PID.TID 0000.0001) %MON dynstat_theta_del2           =   0.0000000000000E+00
(PID.TID 0000.0001) %MON dynstat_salt_max             =   3.0000000000000E+01
(PID.TID 0000.0001) %MON dynstat_salt_min             =   3.0000000000000E+01
(PID.TID 0000.0001) %MON dynstat_salt_mean            =   3.0000000000000E+01
(PID.TID 0000.0001) %MON dynstat_salt_sd              =   0.0000000000000E+00
(PID.TID 0000.0001) %MON dynstat_salt_del2            =   0.0000000000000E+00
(PID.TID 0000.0001) %MON trAdv_CFL_u_max              =   1.8329180433256E-04
(PID.TID 0000.0001) %MON trAdv_CFL_v_max              =   3.0209853257462E-04
(PID.TID 0000.0001) %MON trAdv_CFL_w_max              =   6.7025871547085E-09
(PID.TID 0000.0001) %MON advcfl_uvel_max              =   1.8413531602845E-04
(PID.TID 0000.0001) %MON advcfl_vvel_max              =   3.0368420080694E-04
(PID.TID 0000.0001) %MON advcfl_wvel_max              =   1.3407434010433E-08
(PID.TID 0000.0001) %MON advcfl_W_hf_max              =   0.0000000000000E+00
(PID.TID 0000.0001) %MON pe_b_mean                    =   1.3724326193264E-08
(PID.TID 0000.0001) %MON ke_max                       =   1.2791697544169E-05
(PID.TID 0000.0001) %MON ke_mean                      =   2.6407750848881E-06
(PID.TID 0000.0001) %MON ke_vol                       =   7.2000000000000E+15
(PID.TID 0000.0001) %MON vort_r_min                   =  -1.9059359898580E-08
(PID.TID 0000.0001) %MON vort_r_max                   =   2.2096793718013E-07
(PID.TID 0000.0001) %MON vort_a_mean                  =   1.0600000000000E-04
(PID.TID 0000.0001) %MON vort_a_sd                    =   3.5178910318947E-06
(PID.TID 0000.0001) %MON vort_p_mean                  =   1.1130000000000E-04
(PID.TID 0000.0001) %MON vort_p_sd                    =   4.0980616039957E-05
(PID.TID 0000.0001) %MON surfExpan_theta_mean         =  -1.1025096884825E-20
(PID.TID 0000.0001) %MON surfExpan_salt_mean          =  -1.6661437661646E-20
(PID.TID 0000.0001) // =======================================================
(PID.TID 0000.0001) // End MONITOR dynamic field statistics
(PID.TID 0000.0001) // =======================================================
 cg2d: Sum(rhs),rhsMax =   1.15510370851668E-07  1.03689058247718E-02
 cg2d: Sum(rhs),rhsMax =   1.16012752026523E-07  1.04193748703168E-02
 cg2d: Sum(rhs),rhsMax =   1.16515606784356E-07  1.04698701909907E-02
 cg2d: Sum(rhs),rhsMax =   1.17019043899269E-07  1.05203917921874E-02
 cg2d: Sum(rhs),rhsMax =   1.17522822348781E-07  1.05709396791389E-02
 cg2d: Sum(rhs),rhsMax =   1.18027271900356E-07  1.06215138569195E-02
 cg2d: Sum(rhs),rhsMax =   1.18532479203431E-07  1.06721143304421E-02
 cg2d: Sum(rhs),rhsMax =   1.19038333048355E-07  1.07227411044618E-02
 cg2d: Sum(rhs),rhsMax =   1.19544851993197E-07  1.07733941835743E-02
 cg2d: Sum(rhs),rhsMax =   1.20051965542267E-07  1.08240735722170E-02
 cg2d: Sum(rhs),rhsMax =   1.20559957132033E-07  1.08747792746694E-02
 cg2d: Sum(rhs),rhsMax =   1.21068794052548E-07  1.09255112950529E-02
 cg2d: Sum(rhs),rhsMax =   1.21578218034712E-07  1.09762696373323E-02
 cg2d: Sum(rhs),rhsMax =   1.22088560868677E-07  1.10270543053150E-02
 cg2d: Sum(rhs),rhsMax =   1.22599906206278E-07  1.10778653026514E-02
 cg2d: Sum(rhs),rhsMax =   1.23111965281975E-07  1.11287026328360E-02
 cg2d: Sum(rhs),rhsMax =   1.23624830351832E-07  1.11795662992075E-02
 cg2d: Sum(rhs),rhsMax =   1.24138767862436E-07  1.12304563049489E-02
 cg2d: Sum(rhs),rhsMax =   1.24653839146671E-07  1.12813726530875E-02
 cg2d: Sum(rhs),rhsMax =   1.25170059851742E-07  1.13323153464963E-02
 cg2d: Sum(rhs),rhsMax =   1.25686763507299E-07  1.13832843878939E-02
 cg2d: Sum(rhs),rhsMax =   1.26204993875639E-07  1.14342797798438E-02
 cg2d: Sum(rhs),rhsMax =   1.26724125484867E-07  1.14853015247567E-02
 cg2d: Sum(rhs),rhsMax =   1.27244526144932E-07  1.15363496248887E-02
 cg2d: Sum(rhs),rhsMax =   1.27765905202915E-07  1.15874240823437E-02
 cg2d: Sum(rhs),rhsMax =   1.28288634389240E-07  1.16385248990721E-02
 cg2d: Sum(rhs),rhsMax =   1.28812557315117E-07  1.16896520768723E-02
 cg2d: Sum(rhs),rhsMax =   1.29337515950706E-07  1.17408056173899E-02
 cg2d: Sum(rhs),rhsMax =   1.29863620901977E-07  1.17919855221196E-02
 cg2d: Sum(rhs),rhsMax =   1.30391372643590E-07  1.18431917924037E-02
 cg2d: Sum(rhs),rhsMax =   1.30920377056781E-07  1.18944244294340E-02
 cg2d: Sum(rhs),rhsMax =   1.31450706597480E-07  1.19456834342511E-02
 cg2d: Sum(rhs),rhsMax =   1.31982377627599E-07  1.19969688077452E-02
 cg2d: Sum(rhs),rhsMax =   1.32515452191256E-07  1.20482805506568E-02
 cg2d: Sum(rhs),rhsMax =   1.33049976553529E-07  1.20996186635758E-02
 cg2d: Sum(rhs),rhsMax =   1.33585797052610E-07  1.21509831469435E-02
 cg2d: Sum(rhs),rhsMax =   1.34123167259970E-07  1.22023740010512E-02
 cg2d: Sum(rhs),rhsMax =   1.34661764836230E-07  1.22537912260421E-02
 cg2d: Sum(rhs),rhsMax =   1.35202039428656E-07  1.23052348219106E-02
 cg2d: Sum(rhs),rhsMax =   1.35743832542501E-07  1.23567047885027E-02
 cg2d: Sum(rhs),rhsMax =   1.36287243435174E-07  1.24082011255173E-02
 cg2d: Sum(rhs),rhsMax =   1.36832144212451E-07  1.24597238325052E-02
 cg2d: Sum(rhs),rhsMax =   1.37378821565143E-07  1.25112729088702E-02
 cg2d: Sum(rhs),rhsMax =   1.37926947568062E-07  1.25628483538693E-02
 cg2d: Sum(rhs),rhsMax =   1.38477038301443E-07  1.26144501666128E-02
 cg2d: Sum(rhs),rhsMax =   1.39028585137424E-07  1.26660783460648E-02
 cg2d: Sum(rhs),rhsMax =   1.39581920681475E-07  1.27177328910442E-02
 cg2d: Sum(rhs),rhsMax =   1.40136955678605E-07  1.27694138002234E-02
 cg2d: Sum(rhs),rhsMax =   1.40693717176621E-07  1.28211210721300E-02
 cg2d: Sum(rhs),rhsMax =   1.41252056568703E-07  1.28728547051472E-02
 cg2d: Sum(rhs),rhsMax =   1.41812293463772E-07  1.29246146975124E-02
 cg2d: Sum(rhs),rhsMax =   1.42374279039903E-07  1.29764010473200E-02
 cg2d: Sum(rhs),rhsMax =   1.42938213591737E-07  1.30282137525195E-02
 cg2d: Sum(rhs),rhsMax =   1.43504084396812E-07  1.30800528109173E-02
 cg2d: Sum(rhs),rhsMax =   1.44071985737348E-07  1.31319182201767E-02
 cg2d: Sum(rhs),rhsMax =   1.44641530967771E-07  1.31838099778173E-02
 cg2d: Sum(rhs),rhsMax =   1.45212925416888E-07  1.32357280812164E-02
 cg2d: Sum(rhs),rhsMax =   1.45786290744326E-07  1.32876725276090E-02
 cg2d: Sum(rhs),rhsMax =   1.46361984303123E-07  1.33396433140878E-02
 cg2d: Sum(rhs),rhsMax =   1.46939425602760E-07  1.33916404376044E-02
 cg2d: Sum(rhs),rhsMax =   1.47518724485929E-07  1.34436638949677E-02
 cg2d: Sum(rhs),rhsMax =   1.48100557068043E-07  1.34957136828468E-02
 cg2d: Sum(rhs),rhsMax =   1.48684061292148E-07  1.35477897977694E-02
 cg2d: Sum(rhs),rhsMax =   1.49269655375789E-07  1.35998922361233E-02
 cg2d: Sum(rhs),rhsMax =   1.49857630468014E-07  1.36520209941544E-02
 cg2d: Sum(rhs),rhsMax =   1.50447657318309E-07  1.37041760679706E-02
 cg2d: Sum(rhs),rhsMax =   1.51039633078387E-07  1.37563574535401E-02
 cg2d: Sum(rhs),rhsMax =   1.51634194610339E-07  1.38085651466904E-02
 cg2d: Sum(rhs),rhsMax =   1.52230667706948E-07  1.38607991431114E-02
 cg2d: Sum(rhs),rhsMax =   1.52829235301744E-07  1.39130594383535E-02
 cg2d: Sum(rhs),rhsMax =   1.53430183960634E-07  1.39653460278292E-02
 cg2d: Sum(rhs),rhsMax =   1.54033464500741E-07  1.40176589068132E-02
(PID.TID 0000.0001)      cg2d_init_res =   2.84898630082512E-02
(PID.TID 0000.0001)      cg2d_iters(min,last) =      -1      85
(PID.TID 0000.0001)      cg2d_last_res =   5.78342448054113E-08
(PID.TID 0000.0001) // =======================================================
(PID.TID 0000.0001) // Begin MONITOR dynamic field statistics
(PID.TID 0000.0001) // =======================================================
(PID.TID 0000.0001) %MON time_tsnumber                =                   288
(PID.TID 0000.0001) %MON time_secondsf                =   3.4560000000000E+05
(PID.TID 0000.0001) %MON dynstat_eta_max              =   9.4818110500318E-03
(PID.TID 0000.0001) %MON dynstat_eta_min              =  -8.2055064246444E-03
(PID.TID 0000.0001) %MON dynstat_eta_mean             =  -1.0878848521445E-11
(PID.TID 0000.0001) %MON dynstat_eta_sd               =   4.9587135701948E-03
(PID.TID 0000.0001) %MON dynstat_eta_del2             =   7.5404868401767E-07
(PID.TID 0000.0001) %MON dynstat_uvel_max             =   4.0770854757012E-03
(PID.TID 0000.0001) %MON dynstat_uvel_min             =  -4.0761456754385E-03
(PID.TID 0000.0001) %MON dynstat_uvel_mean            =  -2.5361255684321E-07
(PID.TID 0000.0001) %MON dynstat_uvel_sd              =   2.1320512640369E-03
(PID.TID 0000.0001) %MON dynstat_uvel_del2            =   1.9803630488253E-06
(PID.TID 0000.0001) %MON dynstat_vvel_max             =   7.0296659219813E-03
(PID.TID 0000.0001) %MON dynstat_vvel_min             =  -4.3906881098846E-03
(PID.TID 0000.0001) %MON dynstat_vvel_mean            =  -3.0366189298655E-08
(PID.TID 0000.0001) %MON dynstat_vvel_sd              =   2.2053315105578E-03
(PID.TID 0000.0001) %MON dynstat_vvel_del2            =   2.8735532327651E-06
(PID.TID 0000.0001) %MON dynstat_wvel_max             =   2.8259163033545E-08
(PID.TID 0000.0001) %MON dynstat_wvel_min             =  -2.0533339079548E-08
(PID.TID 0000.0001) %MON dynstat_wvel_mean            =   7.4564215740085E-22
(PID.TID 0000.0001) %MON dynstat_wvel_sd              =   1.4227425566888E-08
(PID.TID 0000.0001) %MON dynstat_wvel_del2            =   2.8372960131333E-12
(PID.TID 0000.0001) %MON dynstat_theta_max            =   2.0000000000000E+01
(PID.TID 0000.0001) %MON dynstat_theta_min            =   2.0000000000000E+01
(PID.TID 0000.0001) %MON dynstat_theta_mean           =   2.0000000000000E+01
(PID.TID 0000.0001) %MON dynstat_theta_sd             =   0.0000000000000E+00
(PID.TID 0000.0001) %MON dynstat_theta_del2           =   0.0000000000000E+00
(PID.TID 0000.0001) %MON dynstat_salt_max             =   3.0000000000000E+01
(PID.TID 0000.0001) %MON dynstat_salt_min             =   3.0000000000000E+01
(PID.TID 0000.0001) %MON dynstat_salt_mean            =   3.0000000000000E+01
(PID.TID 0000.0001) %MON dynstat_salt_sd              =   0.0000000000000E+00
(PID.TID 0000.0001) %MON dynstat_salt_del2            =   0.0000000000000E+00
(PID.TID 0000.0001) %MON trAdv_CFL_u_max              =   2.4379240101024E-04
(PID.TID 0000.0001) %MON trAdv_CFL_v_max              =   4.2008804387567E-04
(PID.TID 0000.0001) %MON trAdv_CFL_w_max              =   6.7807074544748E-09
(PID.TID 0000.0001) %MON advcfl_uvel_max              =   2.4462512854207E-04
(PID.TID 0000.0001) %MON advcfl_vvel_max              =   4.2177995531888E-04
(PID.TID 0000.0001) %MON advcfl_wvel_max              =   1.3564398256101E-08
(PID.TID 0000.0001) %MON advcfl_W_hf_max              =   0.0000000000000E+00
(PID.TID 0000.0001) %MON pe_b_mean                    =   2.4121652306081E-08
(PID.TID 0000.0001) %MON ke_max                       =   2.4675072879698E-05
(PID.TID 0000.0001) %MON ke_mean                      =   4.6261554501811E-06
(PID.TID 0000.0001) %MON ke_vol                       =   7.2000000000000E+15
(PID.TID 0000.0001) %MON vort_r_min                   =  -2.7860696213370E-08
(PID.TID 0000.0001) %MON vort_r_max                   =   2.9328793834685E-07
(PID.TID 0000.0001) %MON vort_a_mean                  =   1.0600000000000E-04
(PID.TID 0000.0001) %MON vort_a_sd                    =   3.5179798063751E-06
(PID.TID 0000.0001) %MON vort_p_mean                  =   1.1130000000000E-04
(PID.TID 0000.0001) %MON vort_p_sd                    =   4.0993758767164E-05
(PID.TID 0000.0001) %MON surfExpan_theta_mean         =   1.5012346921139E-20
(PID.TID 0000.0001) %MON surfExpan_salt_mean          =   2.2465150727334E-20
(PID.TID 0000.0001) // =======================================================
(PID.TID 0000.0001) // End MONITOR dynamic field statistics
(PID.TID 0000.0001) // =======================================================
 cg2d: Sum(rhs),rhsMax =   1.54638978212829E-07  1.40699980704420E-02
 cg2d: Sum(rhs),rhsMax =   1.55246881346910E-07  1.41223635137148E-02
 cg2d: Sum(rhs),rhsMax =   1.55857109194329E-07  1.41747552314935E-02
 cg2d: Sum(rhs),rhsMax =   1.56469648668334E-07  1.42271732185034E-02
 cg2d: Sum(rhs),rhsMax =   1.57084525335277E-07  1.42796174693337E-02
 cg2d: Sum(rhs),rhsMax =   1.57701974458357E-07  1.43320879784362E-02
 cg2d: Sum(rhs),rhsMax =   1.58321792193689E-07  1.43845847401277E-02
 cg2d: Sum(rhs),rhsMax =   1.58944142035489E-07  1.44371077485891E-02
 cg2d: Sum(rhs),rhsMax =   1.59568835131352E-07  1.44896569978660E-02
 cg2d: Sum(rhs),rhsMax =   1.60196107538979E-07  1.45422324818692E-02
 cg2d: Sum(rhs),rhsMax =   1.60825960708599E-07  1.45948341943738E-02
 cg2d: Sum(rhs),rhsMax =   1.61458197606851E-07  1.46474621290218E-02
 cg2d: Sum(rhs),rhsMax =   1.62093321237622E-07  1.47001162793198E-02
 cg2d: Sum(rhs),rhsMax =   1.62730841402753E-07  1.47527966386415E-02
 cg2d: Sum(rhs),rhsMax =   1.63371030984655E-07  1.48055032002266E-02
 cg2d: Sum(rhs),rhsMax =   1.64013667012380E-07  1.48582359571816E-02
 cg2d: Sum(rhs),rhsMax =   1.64659146744545E-07  1.49109949024799E-02
 cg2d: Sum(rhs),rhsMax =   1.65307414517341E-07  1.49637800289622E-02
 cg2d: Sum(rhs),rhsMax =   1.65958330317767E-07  1.50165913293369E-02
 cg2d: Sum(rhs),rhsMax =   1.66611941989497E-07  1.50694287961805E-02
 cg2d: Sum(rhs),rhsMax =   1.67268457446079E-07  1.51222924219371E-02
 cg2d: Sum(rhs),rhsMax =   1.67927638104054E-07  1.51751821989200E-02
 cg2d: Sum(rhs),rhsMax =   1.68589562650479E-07  1.52280981193109E-02
 cg2d: Sum(rhs),rhsMax =   1.69254474529507E-07  1.52810401751600E-02
 cg2d: Sum(rhs),rhsMax =   1.69922066712430E-07  1.53340083583883E-02
 cg2d: Sum(rhs),rhsMax =   1.70592700902972E-07  1.53870026607844E-02
 cg2d: Sum(rhs),rhsMax =   1.71266197047243E-07  1.54400230740086E-02
 cg2d: Sum(rhs),rhsMax =   1.71942684954601E-07  1.54930695895899E-02
 cg2d: Sum(rhs),rhsMax =   1.72622036408165E-07  1.55461421989294E-02
 cg2d: Sum(rhs),rhsMax =   1.73304455237944E-07  1.55992408932978E-02
 cg2d: Sum(rhs),rhsMax =   1.73989916606165E-07  1.56523656638368E-02
 cg2d: Sum(rhs),rhsMax =   1.74678434078368E-07  1.57055165015595E-02
 cg2d: Sum(rhs),rhsMax =   1.75370136745734E-07  1.57586933973523E-02
 cg2d: Sum(rhs),rhsMax =   1.76064506841878E-07  1.58118963419701E-02
 cg2d: Sum(rhs),rhsMax =   1.76762235036543E-07  1.58651253260429E-02
 cg2d: Sum(rhs),rhsMax =   1.77463188356236E-07  1.59183803400721E-02
 cg2d: Sum(rhs),rhsMax =   1.78167270405843E-07  1.59716613744312E-02
 cg2d: Sum(rhs),rhsMax =   1.78874407261859E-07  1.60249684193677E-02
 cg2d: Sum(rhs),rhsMax =   1.79584952211126E-07  1.60783014650021E-02
 cg2d: Sum(rhs),rhsMax =   1.80298527691081E-07  1.61316605013286E-02
 cg2d: Sum(rhs),rhsMax =   1.81015334582701E-07  1.61850455182141E-02
 cg2d: Sum(rhs),rhsMax =   1.81735446382753E-07  1.62384565054013E-02
 cg2d: Sum(rhs),rhsMax =   1.83714184861378E-07  1.62918934630179E-02
 cg2d: Sum(rhs),rhsMax =   1.85692030755386E-07  1.63453563611994E-02
 cg2d: Sum(rhs),rhsMax =   1.87669045463579E-07  1.63988451962654E-02
 cg2d: Sum(rhs),rhsMax =   1.89645363732338E-07  1.64523599595116E-02
 cg2d: Sum(rhs),rhsMax =   1.91620674997589E-07  1.65059006399594E-02
 cg2d: Sum(rhs),rhsMax =   1.93595396137669E-07  1.65594672265662E-02
 cg2d: Sum(rhs),rhsMax =   1.95569667307827E-07  1.66130597081791E-02
 cg2d: Sum(rhs),rhsMax =   1.97543188487637E-07  1.66666780735307E-02
 cg2d: Sum(rhs),rhsMax =   1.99516481912132E-07  1.67203223112402E-02
 cg2d: Sum(rhs),rhsMax =   2.01489185617382E-07  1.67739924098040E-02
 cg2d: Sum(rhs),rhsMax =   2.03461645791742E-07  1.68276883575974E-02
 cg2d: Sum(rhs),rhsMax =   2.05433721662401E-07  1.68814101428728E-02
 cg2d: Sum(rhs),rhsMax =   2.07405707643160E-07  1.69351577537590E-02
 cg2d: Sum(rhs),rhsMax =   2.09377582979786E-07  1.69889311782659E-02
 cg2d: Sum(rhs),rhsMax =   2.11349566344582E-07  1.70427304042791E-02
 cg2d: Sum(rhs),rhsMax =   2.13321287752255E-07  1.70965554195637E-02
 cg2d: Sum(rhs),rhsMax =   2.15293014534101E-07  1.71504062117629E-02
 cg2d: Sum(rhs),rhsMax =   2.17265099689001E-07  1.72042827683994E-02
 cg2d: Sum(rhs),rhsMax =   2.19237126671684E-07  1.72581850768744E-02
 cg2d: Sum(rhs),rhsMax =   2.21209469766087E-07  1.73121131244689E-02
 cg2d: Sum(rhs),rhsMax =   2.23182225041196E-07  1.73660668983429E-02
 cg2d: Sum(rhs),rhsMax =   2.25154903603364E-07  1.74200463855379E-02
 cg2d: Sum(rhs),rhsMax =   2.27128486726680E-07  1.74740515729739E-02
 cg2d: Sum(rhs),rhsMax =   2.29102468000258E-07  1.75280824474531E-02
 cg2d: Sum(rhs),rhsMax =   2.31076972608685E-07  1.75821389956581E-02
 cg2d: Sum(rhs),rhsMax =   2.33052191479094E-07  1.76362212041515E-02
 cg2d: Sum(rhs),rhsMax =   2.35027997289722E-07  1.76903290593781E-02
 cg2d: Sum(rhs),rhsMax =   2.37004452775108E-07  1.77444625476649E-02
 cg2d: Sum(rhs),rhsMax =   2.38981781069264E-07  1.77986216552199E-02
 cg2d: Sum(rhs),rhsMax =   2.40959873588908E-07  1.78528063681331E-02
(PID.TID 0000.0001)      cg2d_init_res =   2.23308698304405E-02
(PID.TID 0000.0001)      cg2d_iters(min,last) =      -1      84
(PID.TID 0000.0001)      cg2d_last_res =   9.47150323451273E-08
(PID.TID 0000.0001) // =======================================================
(PID.TID 0000.0001) // Begin MONITOR dynamic field statistics
(PID.TID 0000.0001) // =======================================================
(PID.TID 0000.0001) %MON time_tsnumber                =                   360
(PID.TID 0000.0001) %MON time_secondsf                =   4.3200000000000E+05
(PID.TID 0000.0001) %MON dynstat_eta_max              =   1.1857329317018E-02
(PID.TID 0000.0001) %MON dynstat_eta_min              =  -9.9455871115650E-03
(PID.TID 0000.0001) %MON dynstat_eta_mean             =  -2.1751572098997E-11
(PID.TID 0000.0001) %MON dynstat_eta_sd               =   6.1586312450947E-03
(PID.TID 0000.0001) %MON dynstat_eta_del2             =   9.9665096896192E-07
(PID.TID 0000.0001) %MON dynstat_uvel_max             =   5.0714074129388E-03
(PID.TID 0000.0001) %MON dynstat_uvel_min             =  -5.0690988536443E-03
(PID.TID 0000.0001) %MON dynstat_uvel_mean            =  -3.0838548094945E-07
(PID.TID 0000.0001) %MON dynstat_uvel_sd              =   2.6329022472825E-03
(PID.TID 0000.0001) %MON dynstat_uvel_del2            =   2.7301045978439E-06
(PID.TID 0000.0001) %MON dynstat_vvel_max             =   9.1204999972245E-03
(PID.TID 0000.0001) %MON dynstat_vvel_min             =  -5.0807340139090E-03
(PID.TID 0000.0001) %MON dynstat_vvel_mean            =  -2.9264224316619E-08
(PID.TID 0000.0001) %MON dynstat_vvel_sd              =   2.7478152435632E-03
(PID.TID 0000.0001) %MON dynstat_vvel_del2            =   4.0639417763852E-06
(PID.TID 0000.0001) %MON dynstat_wvel_max             =   2.8656772107497E-08
(PID.TID 0000.0001) %MON dynstat_wvel_min             =  -1.9742237504915E-08
(PID.TID 0000.0001) %MON dynstat_wvel_mean            =   7.4782090248644E-22
(PID.TID 0000.0001) %MON dynstat_wvel_sd              =   1.4092458121204E-08
(PID.TID 0000.0001) %MON dynstat_wvel_del2            =   3.1143070974086E-12
(PID.TID 0000.0001) %MON dynstat_theta_max            =   2.0000000000000E+01
(PID.TID 0000.0001) %MON dynstat_theta_min            =   2.0000000000000E+01
(PID.TID 0000.0001) %MON dynstat_theta_mean           =   2.0000000000000E+01
(PID.TID 0000.0001) %MON dynstat_theta_sd             =   0.0000000000000E+00
(PID.TID 0000.0001) %MON dynstat_theta_del2           =   0.0000000000000E+00
(PID.TID 0000.0001) %MON dynstat_salt_max             =   3.0000000000000E+01
(PID.TID 0000.0001) %MON dynstat_salt_min             =   3.0000000000000E+01
(PID.TID 0000.0001) %MON dynstat_salt_mean            =   3.0000000000000E+01
(PID.TID 0000.0001) %MON dynstat_salt_sd              =   0.0000000000000E+00
(PID.TID 0000.0001) %MON dynstat_salt_del2            =   0.0000000000000E+00
(PID.TID 0000.0001) %MON trAdv_CFL_u_max              =   3.0346567176376E-04
(PID.TID 0000.0001) %MON trAdv_CFL_v_max              =   5.4543984725137E-04
(PID.TID 0000.0001) %MON trAdv_CFL_w_max              =   6.8764214161813E-09
(PID.TID 0000.0001) %MON advcfl_uvel_max              =   3.0428444477633E-04
(PID.TID 0000.0001) %MON advcfl_vvel_max              =   5.4722999983347E-04
(PID.TID 0000.0001) %MON advcfl_wvel_max              =   1.3755250611599E-08
(PID.TID 0000.0001) %MON advcfl_W_hf_max              =   0.0000000000000E+00
(PID.TID 0000.0001) %MON pe_b_mean                    =   3.7208092775608E-08
(PID.TID 0000.0001) %MON ke_max                       =   4.1536658464494E-05
(PID.TID 0000.0001) %MON ke_mean                      =   7.1206426182937E-06
(PID.TID 0000.0001) %MON ke_vol                       =   7.2000000000000E+15
(PID.TID 0000.0001) %MON vort_r_min                   =  -3.8059479837166E-08
(PID.TID 0000.0001) %MON vort_r_max                   =   3.6606673482266E-07
(PID.TID 0000.0001) %MON vort_a_mean                  =   1.0600000000000E-04
(PID.TID 0000.0001) %MON vort_a_sd                    =   3.5180877054307E-06
(PID.TID 0000.0001) %MON vort_p_mean                  =   1.1130000000000E-04
(PID.TID 0000.0001) %MON vort_p_sd                    =   4.1005366511299E-05
(PID.TID 0000.0001) %MON surfExpan_theta_mean         =   1.4831079574328E-20
(PID.TID 0000.0001) %MON surfExpan_salt_mean          =   2.2247250955034E-20
(PID.TID 0000.0001) // =======================================================
(PID.TID 0000.0001) // End MONITOR dynamic field statistics
(PID.TID 0000.0001) // =======================================================
 cg2d: Sum(rhs),rhsMax =   2.42939094438621E-07  1.79070166723774E-02
 cg2d: Sum(rhs),rhsMax =   2.44919031916480E-07  1.79612525538077E-02
 cg2d: Sum(rhs),rhsMax =   2.46900412583656E-07  1.80155139981628E-02
 cg2d: Sum(rhs),rhsMax =   2.48882662999550E-07  1.80698009910628E-02
 cg2d: Sum(rhs),rhsMax =   2.50866115845960E-07  1.81241135180136E-02
 cg2d: Sum(rhs),rhsMax =   2.52850938440435E-07  1.81784515644028E-02
 cg2d: Sum(rhs),rhsMax =   2.54837050517320E-07  1.82328151155022E-02
 cg2d: Sum(rhs),rhsMax =   2.56824338299572E-07  1.82872041564693E-02
 cg2d: Sum(rhs),rhsMax =   2.58813323175677E-07  1.83416186723438E-02
 cg2d: Sum(rhs),rhsMax =   2.60803635944440E-07  1.83960586480517E-02
 cg2d: Sum(rhs),rhsMax =   2.62795277459343E-07  1.84505240684031E-02
 cg2d: Sum(rhs),rhsMax =   2.64788935763760E-07  1.85050149180934E-02
 cg2d: Sum(rhs),rhsMax =   2.66783877558852E-07  1.85595311817036E-02
 cg2d: Sum(rhs),rhsMax =   2.68780922099005E-07  1.86140728437005E-02
 cg2d: Sum(rhs),rhsMax =   2.70779643006536E-07  1.86686398884358E-02
 cg2d: Sum(rhs),rhsMax =   2.72780049933447E-07  1.87232323001494E-02
 cg2d: Sum(rhs),rhsMax =   2.74782441245236E-07  1.87778500629654E-02
 cg2d: Sum(rhs),rhsMax =   2.76786687201935E-07  1.88324931608956E-02
 cg2d: Sum(rhs),rhsMax =   2.78793137496042E-07  1.88871615778391E-02
 cg2d: Sum(rhs),rhsMax =   2.80801600274078E-07  1.89418552975815E-02
 cg2d: Sum(rhs),rhsMax =   2.82812089625467E-07  1.89965743037959E-02
 cg2d: Sum(rhs),rhsMax =   2.84824888074214E-07  1.90513185800431E-02
 cg2d: Sum(rhs),rhsMax =   2.86840035786107E-07  1.91060881097722E-02
 cg2d: Sum(rhs),rhsMax =   2.88857509973817E-07  1.91608828763202E-02
 cg2d: Sum(rhs),rhsMax =   2.90877353665425E-07  1.92157028629119E-02
 cg2d: Sum(rhs),rhsMax =   2.92899608685115E-07  1.92705480526620E-02
 cg2d: Sum(rhs),rhsMax =   2.94924456908235E-07  1.93254184285727E-02
 cg2d: Sum(rhs),rhsMax =   2.96951888183183E-07  1.93803139735362E-02
 cg2d: Sum(rhs),rhsMax =   2.98981870747173E-07  1.94352346703340E-02
 cg2d: Sum(rhs),rhsMax =   3.01014531554206E-07  1.94901805016367E-02
 cg2d: Sum(rhs),rhsMax =   3.03050045186853E-07  1.95451514500060E-02
 cg2d: Sum(rhs),rhsMax =   3.05088164918865E-07  1.96001474978919E-02
 cg2d: Sum(rhs),rhsMax =   3.07129371667630E-07  1.96551686276359E-02
 cg2d: Sum(rhs),rhsMax =   3.09173462113149E-07  1.97102148214704E-02
 cg2d: Sum(rhs),rhsMax =   3.11220473857288E-07  1.97652860615175E-02
 cg2d: Sum(rhs),rhsMax =   3.13270738273863E-07  1.98203823297912E-02
 cg2d: Sum(rhs),rhsMax =   3.15324276242007E-07  1.98755036081963E-02
 cg2d: Sum(rhs),rhsMax =   3.17380805046896E-07  1.99306498785298E-02
 cg2d: Sum(rhs),rhsMax =   3.19440487690087E-07  1.99858211224801E-02
 cg2d: Sum(rhs),rhsMax =   3.21503410293661E-07  2.00410173216270E-02
 cg2d: Sum(rhs),rhsMax =   3.23569792619327E-07  2.00962384574443E-02
 cg2d: Sum(rhs),rhsMax =   3.25639660285482E-07  2.01514845112966E-02
 cg2d: Sum(rhs),rhsMax =   3.27713217108255E-07  2.02067554644408E-02
 cg2d: Sum(rhs),rhsMax =   3.29790271518665E-07  2.02620512980295E-02
 cg2d: Sum(rhs),rhsMax =   3.31870924519251E-07  2.03173719931059E-02
 cg2d: Sum(rhs),rhsMax =   3.33955083444554E-07  2.03727175306074E-02
 cg2d: Sum(rhs),rhsMax =   3.36043060291530E-07  2.04280878913660E-02
 cg2d: Sum(rhs),rhsMax =   3.38134890000980E-07  2.04834830561057E-02
 cg2d: Sum(rhs),rhsMax =   3.40230547218184E-07  2.05389030054466E-02
 cg2d: Sum(rhs),rhsMax =   3.42330103035582E-07  2.05943477199022E-02
 cg2d: Sum(rhs),rhsMax =   3.44433832736440E-07  2.06498171798807E-02
 cg2d: Sum(rhs),rhsMax =   3.46541567171343E-07  2.07053113656852E-02
 cg2d: Sum(rhs),rhsMax =   3.48653533134569E-07  2.07608302575143E-02
 cg2d: Sum(rhs),rhsMax =   3.50769608959550E-07  2.08163738354606E-02
 cg2d: Sum(rhs),rhsMax =   3.52889894777997E-07  2.08719420795147E-02
 cg2d: Sum(rhs),rhsMax =   3.55014383741220E-07  2.09275349695599E-02
 cg2d: Sum(rhs),rhsMax =   3.57143477985877E-07  2.09831524853776E-02
 cg2d: Sum(rhs),rhsMax =   3.59277031430905E-07  2.10387946066457E-02
 cg2d: Sum(rhs),rhsMax =   3.61414842348778E-07  2.10944613129364E-02
 cg2d: Sum(rhs),rhsMax =   3.63557279222521E-07  2.11501525837212E-02
 cg2d: Sum(rhs),rhsMax =   3.65704590433308E-07  2.12058683983667E-02
 cg2d: Sum(rhs),rhsMax =   3.67856495060020E-07  2.12616087361369E-02
 cg2d: Sum(rhs),rhsMax =   3.70013085296272E-07  2.13173735761941E-02
 cg2d: Sum(rhs),rhsMax =   3.72174696668809E-07  2.13731628975979E-02
 cg2d: Sum(rhs),rhsMax =   3.74341199736034E-07  2.14289766793051E-02
 cg2d: Sum(rhs),rhsMax =   3.76512578437876E-07  2.14848149001706E-02
 cg2d: Sum(rhs),rhsMax =   3.78689127354670E-07  2.15406775389488E-02
 cg2d: Sum(rhs),rhsMax =   3.80870669863809E-07  2.15965645742908E-02
 cg2d: Sum(rhs),rhsMax =   3.83057521178426E-07  2.16524759847483E-02
 cg2d: Sum(rhs),rhsMax =   3.85249465866683E-07  2.17084117487714E-02
 cg2d: Sum(rhs),rhsMax =   3.87447022430487E-07  2.17643718447078E-02
 cg2d: Sum(rhs),rhsMax =   3.89649815621396E-07  2.18203562508069E-02
(PID.TID 0000.0001)      cg2d_init_res =   1.83757528615767E-02
(PID.TID 0000.0001)      cg2d_iters(min,last) =      -1      84
(PID.TID 0000.0001)      cg2d_last_res =   8.45657403895487E-08
(PID.TID 0000.0001) // =======================================================
(PID.TID 0000.0001) // Begin MONITOR dynamic field statistics
(PID.TID 0000.0001) // =======================================================
(PID.TID 0000.0001) %MON time_tsnumber                =                   432
(PID.TID 0000.0001) %MON time_secondsf                =   5.1840000000000E+05
(PID.TID 0000.0001) %MON dynstat_eta_max              =   1.4233588993889E-02
(PID.TID 0000.0001) %MON dynstat_eta_min              =  -1.1613442758495E-02
(PID.TID 0000.0001) %MON dynstat_eta_mean             =  -4.2862147314813E-11
(PID.TID 0000.0001) %MON dynstat_eta_sd               =   7.3358926798573E-03
(PID.TID 0000.0001) %MON dynstat_eta_del2             =   1.2615539535401E-06
(PID.TID 0000.0001) %MON dynstat_uvel_max             =   6.0482773570553E-03
(PID.TID 0000.0001) %MON dynstat_uvel_min             =  -6.0434487336489E-03
(PID.TID 0000.0001) %MON dynstat_uvel_mean            =  -3.5870567002729E-07
(PID.TID 0000.0001) %MON dynstat_uvel_sd              =   3.1170102394235E-03
(PID.TID 0000.0001) %MON dynstat_uvel_del2            =   3.4842112570180E-06
(PID.TID 0000.0001) %MON dynstat_vvel_max             =   1.1324536248953E-02
(PID.TID 0000.0001) %MON dynstat_vvel_min             =  -5.6778503930650E-03
(PID.TID 0000.0001) %MON dynstat_vvel_mean            =  -2.7886559039263E-08
(PID.TID 0000.0001) %MON dynstat_vvel_sd              =   3.2889308373379E-03
(PID.TID 0000.0001) %MON dynstat_vvel_del2            =   5.3437881381681E-06
(PID.TID 0000.0001) %MON dynstat_wvel_max             =   2.9092054464127E-08
(PID.TID 0000.0001) %MON dynstat_wvel_min             =  -1.8862873791995E-08
(PID.TID 0000.0001) %MON dynstat_wvel_mean            =  -5.1191616674057E-22
(PID.TID 0000.0001) %MON dynstat_wvel_sd              =   1.3935413322767E-08
(PID.TID 0000.0001) %MON dynstat_wvel_del2            =   3.3675397261796E-12
(PID.TID 0000.0001) %MON dynstat_theta_max            =   2.0000000000000E+01
(PID.TID 0000.0001) %MON dynstat_theta_min            =   2.0000000000000E+01
(PID.TID 0000.0001) %MON dynstat_theta_mean           =   2.0000000000000E+01
(PID.TID 0000.0001) %MON dynstat_theta_sd             =   0.0000000000000E+00
(PID.TID 0000.0001) %MON dynstat_theta_del2           =   0.0000000000000E+00
(PID.TID 0000.0001) %MON dynstat_salt_max             =   3.0000000000000E+01
(PID.TID 0000.0001) %MON dynstat_salt_min             =   3.0000000000000E+01
(PID.TID 0000.0001) %MON dynstat_salt_mean            =   3.0000000000000E+01
(PID.TID 0000.0001) %MON dynstat_salt_sd              =   0.0000000000000E+00
(PID.TID 0000.0001) %MON dynstat_salt_del2            =   0.0000000000000E+00
(PID.TID 0000.0001) %MON trAdv_CFL_u_max              =   3.6209461728467E-04
(PID.TID 0000.0001) %MON trAdv_CFL_v_max              =   6.7759146388476E-04
(PID.TID 0000.0001) %MON trAdv_CFL_w_max              =   6.9804434867052E-09
(PID.TID 0000.0001) %MON advcfl_uvel_max              =   3.6289664142332E-04
(PID.TID 0000.0001) %MON advcfl_vvel_max              =   6.7947217493719E-04
(PID.TID 0000.0001) %MON advcfl_wvel_max              =   1.3964186142781E-08
(PID.TID 0000.0001) %MON advcfl_W_hf_max              =   0.0000000000000E+00
(PID.TID 0000.0001) %MON pe_b_mean                    =   5.2792830303587E-08
(PID.TID 0000.0001) %MON ke_max                       =   6.4038698694102E-05
(PID.TID 0000.0001) %MON ke_mean                      =   1.0095302682331E-05
(PID.TID 0000.0001) %MON ke_vol                       =   7.2000000000000E+15
(PID.TID 0000.0001) %MON vort_r_min                   =  -4.9810298884109E-08
(PID.TID 0000.0001) %MON vort_r_max                   =   4.3962450524395E-07
(PID.TID 0000.0001) %MON vort_a_mean                  =   1.0600000000000E-04
(PID.TID 0000.0001) %MON vort_a_sd                    =   3.5182156075464E-06
(PID.TID 0000.0001) %MON vort_p_mean                  =   1.1130000000000E-04
(PID.TID 0000.0001) %MON vort_p_sd                    =   4.1015728801175E-05
(PID.TID 0000.0001) %MON surfExpan_theta_mean         =  -1.0204025279058E-20
(PID.TID 0000.0001) %MON surfExpan_salt_mean          =  -1.5288984892929E-20
(PID.TID 0000.0001) // =======================================================
(PID.TID 0000.0001) // End MONITOR dynamic field statistics
(PID.TID 0000.0001) // =======================================================
 cg2d: Sum(rhs),rhsMax =   3.91858000464707E-07  2.18763649452165E-02
 cg2d: Sum(rhs),rhsMax =   3.94071870628288E-07  2.19323979059843E-02
 cg2d: Sum(rhs),rhsMax =   3.96291273546678E-07  2.19884551110591E-02
 cg2d: Sum(rhs),rhsMax =   3.98516247439307E-07  2.20445365382884E-02
 cg2d: Sum(rhs),rhsMax =   4.00747066604118E-07  2.21006421654214E-02
 cg2d: Sum(rhs),rhsMax =   4.02983629167741E-07  2.21567719701082E-02
 cg2d: Sum(rhs),rhsMax =   4.05226082061255E-07  2.22129259298991E-02
 cg2d: Sum(rhs),rhsMax =   4.07474381042272E-07  2.22691040222457E-02
 cg2d: Sum(rhs),rhsMax =   4.09728842663132E-07  2.23253062245016E-02
 cg2d: Sum(rhs),rhsMax =   4.11989379882349E-07  2.23815325139219E-02
 cg2d: Sum(rhs),rhsMax =   4.14256075449704E-07  2.24377828676631E-02
 cg2d: Sum(rhs),rhsMax =   4.16529210546523E-07  2.24940572627845E-02
 cg2d: Sum(rhs),rhsMax =   4.18808384101271E-07  2.25503556762467E-02
 cg2d: Sum(rhs),rhsMax =   4.21093935394634E-07  2.26066780849143E-02
 cg2d: Sum(rhs),rhsMax =   4.23385855954223E-07  2.26630244655526E-02
 cg2d: Sum(rhs),rhsMax =   4.25684377518276E-07  2.27193947948315E-02
 cg2d: Sum(rhs),rhsMax =   4.27989380311078E-07  2.27757890493243E-02
 cg2d: Sum(rhs),rhsMax =   4.30301226810037E-07  2.28322072055068E-02
 cg2d: Sum(rhs),rhsMax =   4.32619577776100E-07  2.28886492397582E-02
 cg2d: Sum(rhs),rhsMax =   4.34945063829822E-07  2.29451151283617E-02
 cg2d: Sum(rhs),rhsMax =   4.37277156890153E-07  2.30016048475063E-02
 cg2d: Sum(rhs),rhsMax =   4.39616431723022E-07  2.30581183732821E-02
 cg2d: Sum(rhs),rhsMax =   4.41962574846549E-07  2.31146556816866E-02
 cg2d: Sum(rhs),rhsMax =   4.44315867886153E-07  2.31712167486208E-02
 cg2d: Sum(rhs),rhsMax =   4.46676284505260E-07  2.32278015498892E-02
 cg2d: Sum(rhs),rhsMax =   4.49044088329797E-07  2.32844100612043E-02
 cg2d: Sum(rhs),rhsMax =   4.51419110723827E-07  2.33410422581823E-02
 cg2d: Sum(rhs),rhsMax =   4.53801565540590E-07  2.33976981163448E-02
 cg2d: Sum(rhs),rhsMax =   4.56191543016932E-07  2.34543776111192E-02
 cg2d: Sum(rhs),rhsMax =   4.58589095385376E-07  2.35110807178404E-02
 cg2d: Sum(rhs),rhsMax =   4.60994483596905E-07  2.35678074117469E-02
 cg2d: Sum(rhs),rhsMax =   4.63407436035457E-07  2.36245576679857E-02
 cg2d: Sum(rhs),rhsMax =   4.65828174898292E-07  2.36813314616098E-02
 cg2d: Sum(rhs),rhsMax =   4.68256886924923E-07  2.37381287675794E-02
 cg2d: Sum(rhs),rhsMax =   4.70693445161346E-07  2.37949495607608E-02
 cg2d: Sum(rhs),rhsMax =   4.73138145065666E-07  2.38517938159277E-02
 cg2d: Sum(rhs),rhsMax =   4.75590861442887E-07  2.39086615077623E-02
 cg2d: Sum(rhs),rhsMax =   4.78051928987089E-07  2.39655526108532E-02
 cg2d: Sum(rhs),rhsMax =   4.80521256035482E-07  2.40224670996993E-02
 cg2d: Sum(rhs),rhsMax =   4.82998834022003E-07  2.40794049487034E-02
 cg2d: Sum(rhs),rhsMax =   4.85484896256549E-07  2.41363661321807E-02
 cg2d: Sum(rhs),rhsMax =   4.87979375400627E-07  2.41933506243526E-02
 cg2d: Sum(rhs),rhsMax =   4.90482700919725E-07  2.42503583993504E-02
 cg2d: Sum(rhs),rhsMax =   4.92994624318177E-07  2.43073894312132E-02
 cg2d: Sum(rhs),rhsMax =   4.95515519043782E-07  2.43644436938899E-02
 cg2d: Sum(rhs),rhsMax =   4.98045159579019E-07  2.44215211612388E-02
 cg2d: Sum(rhs),rhsMax =   5.00583674557104E-07  2.44786218070291E-02
 cg2d: Sum(rhs),rhsMax =   5.03131265178203E-07  2.45357456049367E-02
 cg2d: Sum(rhs),rhsMax =   5.05687989680453E-07  2.45928925285495E-02
 cg2d: Sum(rhs),rhsMax =   5.08253899869637E-07  2.46500625513655E-02
 cg2d: Sum(rhs),rhsMax =   5.10829155055820E-07  2.47072556467929E-02
 cg2d: Sum(rhs),rhsMax =   5.13413693996323E-07  2.47644717881502E-02
 cg2d: Sum(rhs),rhsMax =   5.16007700342852E-07  2.48217109486665E-02
 cg2d: Sum(rhs),rhsMax =   5.18611306930122E-07  2.48789731014833E-02
 cg2d: Sum(rhs),rhsMax =   5.21224709261470E-07  2.49362582196516E-02
 cg2d: Sum(rhs),rhsMax =   5.23847671438787E-07  2.49935662761347E-02
 cg2d: Sum(rhs),rhsMax =   5.26480685610065E-07  2.50508972438075E-02
 cg2d: Sum(rhs),rhsMax =   5.29123610072679E-07  2.51082510954563E-02
 cg2d: Sum(rhs),rhsMax =   5.31776327864636E-07  2.51656278037796E-02
 cg2d: Sum(rhs),rhsMax =   5.34439238149276E-07  2.52230273413889E-02
 cg2d: Sum(rhs),rhsMax =   5.37112468470408E-07  2.52804496808070E-02
 cg2d: Sum(rhs),rhsMax =   5.39795724893016E-07  2.53378947944703E-02
 cg2d: Sum(rhs),rhsMax =   5.42489545882208E-07  2.53953626547266E-02
 cg2d: Sum(rhs),rhsMax =   5.45193706787822E-07  2.54528532338382E-02
 cg2d: Sum(rhs),rhsMax =   5.47908719252671E-07  2.55103665039812E-02
 cg2d: Sum(rhs),rhsMax =   5.50634086448482E-07  2.55679024372419E-02
 cg2d: Sum(rhs),rhsMax =   5.53370448130863E-07  2.56254610056245E-02
 cg2d: Sum(rhs),rhsMax =   5.56117512720555E-07  2.56830421810434E-02
 cg2d: Sum(rhs),rhsMax =   5.58875488557847E-07  2.57406459353292E-02
 cg2d: Sum(rhs),rhsMax =   5.61644630411168E-07  2.57982722402268E-02
 cg2d: Sum(rhs),rhsMax =   5.64424938356844E-07  2.58559210673939E-02
 cg2d: Sum(rhs),rhsMax =   5.67216352206912E-07  2.59135923884046E-02
(PID.TID 0000.0001)      cg2d_init_res =   1.56363046789742E-02
(PID.TID 0000.0001)      cg2d_iters(min,last) =      -1      84
(PID.TID 0000.0001)      cg2d_last_res =   7.66572632140721E-08
(PID.TID 0000.0001) // =======================================================
(PID.TID 0000.0001) // Begin MONITOR dynamic field statistics
(PID.TID 0000.0001) // =======================================================
(PID.TID 0000.0001) %MON time_tsnumber                =                   504
(PID.TID 0000.0001) %MON time_secondsf                =   6.0480000000000E+05
(PID.TID 0000.0001) %MON dynstat_eta_max              =   1.6609492192652E-02
(PID.TID 0000.0001) %MON dynstat_eta_min              =  -1.3201611525069E-02
(PID.TID 0000.0001) %MON dynstat_eta_mean             =  -7.4020645747715E-11
(PID.TID 0000.0001) %MON dynstat_eta_sd               =   8.4865625069739E-03
(PID.TID 0000.0001) %MON dynstat_eta_del2             =   1.5468323261342E-06
(PID.TID 0000.0001) %MON dynstat_uvel_max             =   7.0043991426810E-03
(PID.TID 0000.0001) %MON dynstat_uvel_min             =  -6.9953355916788E-03
(PID.TID 0000.0001) %MON dynstat_uvel_mean            =  -4.0416359407403E-07
(PID.TID 0000.0001) %MON dynstat_uvel_sd              =   3.5824527545533E-03
(PID.TID 0000.0001) %MON dynstat_uvel_del2            =   4.2190293533918E-06
(PID.TID 0000.0001) %MON dynstat_vvel_max             =   1.3632581890283E-02
(PID.TID 0000.0001) %MON dynstat_vvel_min             =  -6.1435997078641E-03
(PID.TID 0000.0001) %MON dynstat_vvel_mean            =  -2.6235766904558E-08
(PID.TID 0000.0001) %MON dynstat_vvel_sd              =   3.8290146659761E-03
(PID.TID 0000.0001) %MON dynstat_vvel_del2            =   6.6981516737374E-06
(PID.TID 0000.0001) %MON dynstat_wvel_max             =   2.9545515942445E-08
(PID.TID 0000.0001) %MON dynstat_wvel_min             =  -1.7899888469383E-08
(PID.TID 0000.0001) %MON dynstat_wvel_mean            =   3.3494264547092E-22
(PID.TID 0000.0001) %MON dynstat_wvel_sd              =   1.3756014686786E-08
(PID.TID 0000.0001) %MON dynstat_wvel_del2            =   3.6002051380879E-12
(PID.TID 0000.0001) %MON dynstat_theta_max            =   2.0000000000000E+01
(PID.TID 0000.0001) %MON dynstat_theta_min            =   2.0000000000000E+01
(PID.TID 0000.0001) %MON dynstat_theta_mean           =   2.0000000000000E+01
(PID.TID 0000.0001) %MON dynstat_theta_sd             =   0.0000000000000E+00
(PID.TID 0000.0001) %MON dynstat_theta_del2           =   0.0000000000000E+00
(PID.TID 0000.0001) %MON dynstat_salt_max             =   3.0000000000000E+01
(PID.TID 0000.0001) %MON dynstat_salt_min             =   3.0000000000000E+01
(PID.TID 0000.0001) %MON dynstat_salt_mean            =   3.0000000000000E+01
(PID.TID 0000.0001) %MON dynstat_salt_sd              =   0.0000000000000E+00
(PID.TID 0000.0001) %MON dynstat_salt_del2            =   0.0000000000000E+00
(PID.TID 0000.0001) %MON trAdv_CFL_u_max              =   4.1948101723361E-04
(PID.TID 0000.0001) %MON trAdv_CFL_v_max              =   8.1599132453106E-04
(PID.TID 0000.0001) %MON trAdv_CFL_w_max              =   7.0894999905315E-09
(PID.TID 0000.0001) %MON advcfl_uvel_max              =   4.2026394856086E-04
(PID.TID 0000.0001) %MON advcfl_vvel_max              =   8.1795491341698E-04
(PID.TID 0000.0001) %MON advcfl_wvel_max              =   1.4181847652374E-08
(PID.TID 0000.0001) %MON advcfl_W_hf_max              =   0.0000000000000E+00
(PID.TID 0000.0001) %MON pe_b_mean                    =   7.0653330064265E-08
(PID.TID 0000.0001) %MON ke_max                       =   9.2804156319697E-05
(PID.TID 0000.0001) %MON ke_mean                      =   1.3518532930660E-05
(PID.TID 0000.0001) %MON ke_vol                       =   7.2000000000000E+15
(PID.TID 0000.0001) %MON vort_r_min                   =  -6.3062121919934E-08
(PID.TID 0000.0001) %MON vort_r_max                   =   5.1412064683289E-07
(PID.TID 0000.0001) %MON vort_a_mean                  =   1.0600000000000E-04
(PID.TID 0000.0001) %MON vort_a_sd                    =   3.5183648790317E-06
(PID.TID 0000.0001) %MON vort_p_mean                  =   1.1130000000000E-04
(PID.TID 0000.0001) %MON vort_p_sd                    =   4.1025067751776E-05
(PID.TID 0000.0001) %MON surfExpan_theta_mean         =   6.7587022398483E-21
(PID.TID 0000.0001) %MON surfExpan_salt_mean          =   1.0113727139722E-20
(PID.TID 0000.0001) // =======================================================
(PID.TID 0000.0001) // End MONITOR dynamic field statistics
(PID.TID 0000.0001) // =======================================================
 cg2d: Sum(rhs),rhsMax =   5.70019089728147E-07  2.59712861747471E-02
 cg2d: Sum(rhs),rhsMax =   5.72833435748266E-07  2.60290023978235E-02
 cg2d: Sum(rhs),rhsMax =   5.75659237719156E-07  2.60867410289543E-02
 cg2d: Sum(rhs),rhsMax =   5.78496551762592E-07  2.61445020393709E-02
 cg2d: Sum(rhs),rhsMax =   5.81345845455938E-07  2.62022854002255E-02
 cg2d: Sum(rhs),rhsMax =   5.84206915961449E-07  2.62600910825821E-02
 cg2d: Sum(rhs),rhsMax =   5.87079802733675E-07  2.63179190574220E-02
 cg2d: Sum(rhs),rhsMax =   5.89964795932874E-07  2.63757692956438E-02
 cg2d: Sum(rhs),rhsMax =   5.92861979849257E-07  2.64336417680604E-02
 cg2d: Sum(rhs),rhsMax =   5.95771448983623E-07  2.64915364454034E-02
 cg2d: Sum(rhs),rhsMax =   5.98693311683329E-07  2.65494532983204E-02
 cg2d: Sum(rhs),rhsMax =   6.01627439769659E-07  2.66073922973755E-02
 cg2d: Sum(rhs),rhsMax =   6.04574213001335E-07  2.66653534130508E-02
 cg2d: Sum(rhs),rhsMax =   6.07533808538729E-07  2.67233366157455E-02
 cg2d: Sum(rhs),rhsMax =   6.10506029483787E-07  2.67813418757765E-02
 cg2d: Sum(rhs),rhsMax =   6.13491150741607E-07  2.68393691633780E-02
 cg2d: Sum(rhs),rhsMax =   6.16489170556650E-07  2.68974184487036E-02
 cg2d: Sum(rhs),rhsMax =   6.19500443697213E-07  2.69554897018230E-02
 cg2d: Sum(rhs),rhsMax =   6.22524837526339E-07  2.70135828927254E-02
 cg2d: Sum(rhs),rhsMax =   6.25562532500373E-07  2.70716979913194E-02
 cg2d: Sum(rhs),rhsMax =   6.28613852908522E-07  2.71298349674316E-02
 cg2d: Sum(rhs),rhsMax =   6.31678485581155E-07  2.71879937908069E-02
 cg2d: Sum(rhs),rhsMax =   6.34756685647525E-07  2.72461744311102E-02
 cg2d: Sum(rhs),rhsMax =   6.37848877795694E-07  2.73043768579257E-02
 cg2d: Sum(rhs),rhsMax =   6.40954759788259E-07  2.73626010407561E-02
 cg2d: Sum(rhs),rhsMax =   6.44074795295990E-07  2.74208469490257E-02
 cg2d: Sum(rhs),rhsMax =   6.47208804022137E-07  2.74791145520780E-02
 cg2d: Sum(rhs),rhsMax =   6.50357132203627E-07  2.75374038191750E-02
 cg2d: Sum(rhs),rhsMax =   6.53519890821130E-07  2.75957147195014E-02
 cg2d: Sum(rhs),rhsMax =   6.56697045461202E-07  2.76540472221617E-02
 cg2d: Sum(rhs),rhsMax =   6.59888719434926E-07  2.77124012961797E-02
 cg2d: Sum(rhs),rhsMax =   6.63095010892956E-07  2.77707769105016E-02
 cg2d: Sum(rhs),rhsMax =   6.66316218284058E-07  2.78291740339947E-02
 cg2d: Sum(rhs),rhsMax =   6.69552359718745E-07  2.78875926354468E-02
 cg2d: Sum(rhs),rhsMax =   6.72803653629928E-07  2.79460326835672E-02
 cg2d: Sum(rhs),rhsMax =   6.76070128304007E-07  2.80044941469873E-02
 cg2d: Sum(rhs),rhsMax =   6.79351663927102E-07  2.80629769942600E-02
 cg2d: Sum(rhs),rhsMax =   6.82648598829272E-07  2.81214811938605E-02
 cg2d: Sum(rhs),rhsMax =   6.85961220124598E-07  2.81800067141861E-02
 cg2d: Sum(rhs),rhsMax =   6.89289390724823E-07  2.82385535235568E-02
 cg2d: Sum(rhs),rhsMax =   6.92633484782046E-07  2.82971215902144E-02
 cg2d: Sum(rhs),rhsMax =   6.95993469579381E-07  2.83557108823238E-02
 cg2d: Sum(rhs),rhsMax =   6.99369499378849E-07  2.84143213679733E-02
 cg2d: Sum(rhs),rhsMax =   7.02761686836861E-07  2.84729530151741E-02
 cg2d: Sum(rhs),rhsMax =   7.06169947326668E-07  2.85316057918607E-02
 cg2d: Sum(rhs),rhsMax =   7.09594734978058E-07  2.85902796658907E-02
 cg2d: Sum(rhs),rhsMax =   7.13036167793862E-07  2.86489746050470E-02
 cg2d: Sum(rhs),rhsMax =   7.16494441124760E-07  2.87076905770345E-02
 cg2d: Sum(rhs),rhsMax =   7.19969378098345E-07  2.87664275494829E-02
 cg2d: Sum(rhs),rhsMax =   7.23461190170471E-07  2.88251854899457E-02
 cg2d: Sum(rhs),rhsMax =   7.26970153592382E-07  2.88839643659018E-02
 cg2d: Sum(rhs),rhsMax =   7.30496437680028E-07  2.89427641447550E-02
 cg2d: Sum(rhs),rhsMax =   7.34040014847837E-07  2.90015847938326E-02
 cg2d: Sum(rhs),rhsMax =   7.37600862610321E-07  2.90604262803876E-02
 cg2d: Sum(rhs),rhsMax =   7.41179730385372E-07  2.91192885715980E-02
 cg2d: Sum(rhs),rhsMax =   7.44776219349652E-07  2.91781716345676E-02
 cg2d: Sum(rhs),rhsMax =   7.48390646756331E-07  2.92370754363261E-02
 cg2d: Sum(rhs),rhsMax =   7.52022964217031E-07  2.92959999438272E-02
 cg2d: Sum(rhs),rhsMax =   7.55673627457487E-07  2.93549451239524E-02
 cg2d: Sum(rhs),rhsMax =   7.59342365784510E-07  2.94139109435085E-02
 cg2d: Sum(rhs),rhsMax =   7.63029666714377E-07  2.94728973692289E-02
 cg2d: Sum(rhs),rhsMax =   7.66735547812897E-07  2.95319043677734E-02
 cg2d: Sum(rhs),rhsMax =   7.70460209929824E-07  2.95909319057280E-02
 cg2d: Sum(rhs),rhsMax =   7.74203760538217E-07  2.96499799496064E-02
 cg2d: Sum(rhs),rhsMax =   7.77966361772270E-07  2.97090484658483E-02
 cg2d: Sum(rhs),rhsMax =   7.81748015581812E-07  2.97681374208220E-02
 cg2d: Sum(rhs),rhsMax =   7.85549048941403E-07  2.98272467808220E-02
 cg2d: Sum(rhs),rhsMax =   7.89369786310251E-07  2.98863765120705E-02
 cg2d: Sum(rhs),rhsMax =   7.93209889642793E-07  2.99455265807183E-02
 cg2d: Sum(rhs),rhsMax =   7.97069825881486E-07  3.00046969528433E-02
 cg2d: Sum(rhs),rhsMax =   8.00949717803118E-07  3.00638875944522E-02
 cg2d: Sum(rhs),rhsMax =   8.04849560921694E-07  3.01230984714793E-02
(PID.TID 0000.0001)      cg2d_init_res =   1.36282751545637E-02
(PID.TID 0000.0001)      cg2d_iters(min,last) =      -1      84
(PID.TID 0000.0001)      cg2d_last_res =   7.03801641873085E-08
(PID.TID 0000.0001) // =======================================================
(PID.TID 0000.0001) // Begin MONITOR dynamic field statistics
(PID.TID 0000.0001) // =======================================================
(PID.TID 0000.0001) %MON time_tsnumber                =                   576
(PID.TID 0000.0001) %MON time_secondsf                =   6.9120000000000E+05
(PID.TID 0000.0001) %MON dynstat_eta_max              =   1.8982885640750E-02
(PID.TID 0000.0001) %MON dynstat_eta_min              =  -1.4703163011525E-02
(PID.TID 0000.0001) %MON dynstat_eta_mean             =  -1.2205277625879E-10
(PID.TID 0000.0001) %MON dynstat_eta_sd               =   9.6068533695276E-03
(PID.TID 0000.0001) %MON dynstat_eta_del2             =   1.8506852826862E-06
(PID.TID 0000.0001) %MON dynstat_uvel_max             =   7.9405934782810E-03
(PID.TID 0000.0001) %MON dynstat_uvel_min             =  -7.9264991402658E-03
(PID.TID 0000.0001) %MON dynstat_uvel_mean            =  -4.4439306922348E-07
(PID.TID 0000.0001) %MON dynstat_uvel_sd              =   4.0274170763497E-03
(PID.TID 0000.0001) %MON dynstat_uvel_del2            =   4.9186814858593E-06
(PID.TID 0000.0001) %MON dynstat_vvel_max             =   1.6035314978347E-02
(PID.TID 0000.0001) %MON dynstat_vvel_min             =  -6.4850026339220E-03
(PID.TID 0000.0001) %MON dynstat_vvel_mean            =  -2.4318852605133E-08
(PID.TID 0000.0001) %MON dynstat_vvel_sd              =   4.3680966805037E-03
(PID.TID 0000.0001) %MON dynstat_vvel_del2            =   8.1201812140944E-06
(PID.TID 0000.0001) %MON dynstat_wvel_max             =   2.9983744165802E-08
(PID.TID 0000.0001) %MON dynstat_wvel_min             =  -1.6860273139046E-08
(PID.TID 0000.0001) %MON dynstat_wvel_mean            =  -1.3711057060088E-21
(PID.TID 0000.0001) %MON dynstat_wvel_sd              =   1.3554496277738E-08
(PID.TID 0000.0001) %MON dynstat_wvel_del2            =   3.8165600932250E-12
(PID.TID 0000.0001) %MON dynstat_theta_max            =   2.0000000000000E+01
(PID.TID 0000.0001) %MON dynstat_theta_min            =   2.0000000000000E+01
(PID.TID 0000.0001) %MON dynstat_theta_mean           =   2.0000000000000E+01
(PID.TID 0000.0001) %MON dynstat_theta_sd             =   0.0000000000000E+00
(PID.TID 0000.0001) %MON dynstat_theta_del2           =   0.0000000000000E+00
(PID.TID 0000.0001) %MON dynstat_salt_max             =   3.0000000000000E+01
(PID.TID 0000.0001) %MON dynstat_salt_min             =   3.0000000000000E+01
(PID.TID 0000.0001) %MON dynstat_salt_mean            =   3.0000000000000E+01
(PID.TID 0000.0001) %MON dynstat_salt_sd              =   0.0000000000000E+00
(PID.TID 0000.0001) %MON dynstat_salt_del2            =   0.0000000000000E+00
(PID.TID 0000.0001) %MON trAdv_CFL_u_max              =   4.7565549086121E-04
(PID.TID 0000.0001) %MON trAdv_CFL_v_max              =   9.6008031054558E-04
(PID.TID 0000.0001) %MON trAdv_CFL_w_max              =   7.1948729771480E-09
(PID.TID 0000.0001) %MON advcfl_uvel_max              =   4.7643560869686E-04
(PID.TID 0000.0001) %MON advcfl_vvel_max              =   9.6211889870084E-04
(PID.TID 0000.0001) %MON advcfl_wvel_max              =   1.4392197199585E-08
(PID.TID 0000.0001) %MON advcfl_W_hf_max              =   0.0000000000000E+00
(PID.TID 0000.0001) %MON pe_b_mean                    =   9.0538090661996E-08
(PID.TID 0000.0001) %MON ke_max                       =   1.2840382367007E-04
(PID.TID 0000.0001) %MON ke_mean                      =   1.7356008914962E-05
(PID.TID 0000.0001) %MON ke_vol                       =   7.2000000000000E+15
(PID.TID 0000.0001) %MON vort_r_min                   =  -7.7840906938051E-08
(PID.TID 0000.0001) %MON vort_r_max                   =   5.8959081710912E-07
(PID.TID 0000.0001) %MON vort_a_mean                  =   1.0600000000000E-04
(PID.TID 0000.0001) %MON vort_a_sd                    =   3.5185370468079E-06
(PID.TID 0000.0001) %MON vort_p_mean                  =   1.1130000000000E-04
(PID.TID 0000.0001) %MON vort_p_sd                    =   4.1033554821709E-05
(PID.TID 0000.0001) %MON surfExpan_theta_mean         =  -2.7452233079354E-20
(PID.TID 0000.0001) %MON surfExpan_salt_mean          =  -4.1142654715208E-20
(PID.TID 0000.0001) // =======================================================
(PID.TID 0000.0001) // End MONITOR dynamic field statistics
(PID.TID 0000.0001) // =======================================================
 cg2d: Sum(rhs),rhsMax =   8.08769768302631E-07  3.01823295497877E-02
 cg2d: Sum(rhs),rhsMax =   8.12710224264157E-07  3.02415807951694E-02
 cg2d: Sum(rhs),rhsMax =   8.16671274956465E-07  3.03008521733448E-02
 cg2d: Sum(rhs),rhsMax =   8.20652803538990E-07  3.03601436499641E-02
 cg2d: Sum(rhs),rhsMax =   8.24655335591312E-07  3.04194551906056E-02
 cg2d: Sum(rhs),rhsMax =   8.28678735076416E-07  3.04787867607782E-02
 cg2d: Sum(rhs),rhsMax =   8.32723313720640E-07  3.05381383259192E-02
 cg2d: Sum(rhs),rhsMax =   8.36789381342129E-07  3.05975098513965E-02
 cg2d: Sum(rhs),rhsMax =   8.40876865478013E-07  3.06569013025074E-02
 cg2d: Sum(rhs),rhsMax =   8.44986084987814E-07  3.07163126444801E-02
 cg2d: Sum(rhs),rhsMax =   8.49117178593900E-07  3.07757438424720E-02
 cg2d: Sum(rhs),rhsMax =   8.53269983246141E-07  3.08351948615711E-02
 cg2d: Sum(rhs),rhsMax =   8.57444980541938E-07  3.08946656667977E-02
 cg2d: Sum(rhs),rhsMax =   8.61642311882072E-07  3.09541562231004E-02
 cg2d: Sum(rhs),rhsMax =   8.65862089294983E-07  3.10136664953603E-02
 cg2d: Sum(rhs),rhsMax =   8.70104370456759E-07  3.10731964483902E-02
 cg2d: Sum(rhs),rhsMax =   8.74369468384373E-07  3.11327460469328E-02
 cg2d: Sum(rhs),rhsMax =   8.78657680940254E-07  3.11923152556627E-02
 cg2d: Sum(rhs),rhsMax =   8.82968920815769E-07  3.12519040391871E-02
 cg2d: Sum(rhs),rhsMax =   8.87303530757583E-07  3.13115123620444E-02
 cg2d: Sum(rhs),rhsMax =   8.91661472858518E-07  3.13711401887049E-02
 cg2d: Sum(rhs),rhsMax =   8.96043145140468E-07  3.14307874835712E-02
 cg2d: Sum(rhs),rhsMax =   9.00448668825909E-07  3.14904542109790E-02
 cg2d: Sum(rhs),rhsMax =   9.04878079625859E-07  3.15501403351958E-02
 cg2d: Sum(rhs),rhsMax =   9.09331698020072E-07  3.16098458204222E-02
 cg2d: Sum(rhs),rhsMax =   9.13809719175346E-07  3.16695706307917E-02
 cg2d: Sum(rhs),rhsMax =   9.18312113153824E-07  3.17293147303702E-02
 cg2d: Sum(rhs),rhsMax =   9.22839252390228E-07  3.17890780831586E-02
 cg2d: Sum(rhs),rhsMax =   9.27391241502262E-07  3.18488606530900E-02
 cg2d: Sum(rhs),rhsMax =   9.31968432586749E-07  3.19086624040306E-02
 cg2d: Sum(rhs),rhsMax =   9.36570849235929E-07  3.19684832997820E-02
 cg2d: Sum(rhs),rhsMax =   9.41198594315434E-07  3.20283233040785E-02
 cg2d: Sum(rhs),rhsMax =   9.45852042692069E-07  3.20881823805893E-02
 cg2d: Sum(rhs),rhsMax =   9.50531267286669E-07  3.21480604929174E-02
 cg2d: Sum(rhs),rhsMax =   9.55236590230446E-07  3.22079576046007E-02
 cg2d: Sum(rhs),rhsMax =   9.59967948445384E-07  3.22678736791115E-02
 cg2d: Sum(rhs),rhsMax =   9.64725783855758E-07  3.23278086798575E-02
 cg2d: Sum(rhs),rhsMax =   9.69510050914668E-07  3.23877625701807E-02
 cg2d: Sum(rhs),rhsMax =   9.74321322521482E-07  3.24477353133579E-02
 cg2d: Sum(rhs),rhsMax =   9.79159417529435E-07  3.25077268726031E-02
 cg2d: Sum(rhs),rhsMax =   9.84024513719928E-07  3.25677372110641E-02
 cg2d: Sum(rhs),rhsMax =   9.88917236741799E-07  3.26277662918255E-02
 cg2d: Sum(rhs),rhsMax =   9.93837255436336E-07  3.26878140779071E-02
 cg2d: Sum(rhs),rhsMax =   9.98785183101147E-07  3.27478805322644E-02
 cg2d: Sum(rhs),rhsMax =   1.00376102702901E-06  3.28079656177906E-02
 cg2d: Sum(rhs),rhsMax =   1.00876473651396E-06  3.28680756641359E-02
 cg2d: Sum(rhs),rhsMax =   1.01379586452469E-06  3.29282369772079E-02
 cg2d: Sum(rhs),rhsMax =   1.01885549814648E-06  3.29884167936014E-02
 cg2d: Sum(rhs),rhsMax =   1.02394370226147E-06  3.30486150757861E-02
 cg2d: Sum(rhs),rhsMax =   1.02906092411606E-06  3.31088317861681E-02
 cg2d: Sum(rhs),rhsMax =   1.03420753100672E-06  3.31690668870903E-02
 cg2d: Sum(rhs),rhsMax =   1.03938352526145E-06  3.32293203408327E-02
 cg2d: Sum(rhs),rhsMax =   1.04458886828612E-06  3.32895921096124E-02
 cg2d: Sum(rhs),rhsMax =   1.04982421331515E-06  3.33498821555835E-02
 cg2d: Sum(rhs),rhsMax =   1.05508937017426E-06  3.34101904408381E-02
 cg2d: Sum(rhs),rhsMax =   1.06038493996596E-06  3.34705169274050E-02
 cg2d: Sum(rhs),rhsMax =   1.06571090613405E-06  3.35308615772526E-02
 cg2d: Sum(rhs),rhsMax =   1.07106743459096E-06  3.35912243522852E-02
 cg2d: Sum(rhs),rhsMax =   1.07645492144343E-06  3.36516052143467E-02
 cg2d: Sum(rhs),rhsMax =   1.08187333850221E-06  3.37120041252187E-02
 cg2d: Sum(rhs),rhsMax =   1.08732313357576E-06  3.37724210466211E-02
 cg2d: Sum(rhs),rhsMax =   1.09280442833759E-06  3.38328559402132E-02
 cg2d: Sum(rhs),rhsMax =   1.09831738046365E-06  3.38933087675924E-02
 cg2d: Sum(rhs),rhsMax =   1.10386235308013E-06  3.39537794902956E-02
 cg2d: Sum(rhs),rhsMax =   1.10943960249243E-06  3.40142680697986E-02
 cg2d: Sum(rhs),rhsMax =   1.11504933033788E-06  3.40747744675162E-02
 cg2d: Sum(rhs),rhsMax =   1.12069153417743E-06  3.41352986448039E-02
 cg2d: Sum(rhs),rhsMax =   1.12636669443930E-06  3.41958405629556E-02
 cg2d: Sum(rhs),rhsMax =   1.13207517210556E-06  3.42564001832051E-02
 cg2d: Sum(rhs),rhsMax =   1.13781692035603E-06  3.43169774667271E-02
 cg2d: Sum(rhs),rhsMax =   1.14359213986004E-06  3.43775723746353E-02
 cg2d: Sum(rhs),rhsMax =   1.14940123366672E-06  3.44381848679848E-02
(PID.TID 0000.0001)      cg2d_init_res =   1.20891442216215E-02
(PID.TID 0000.0001)      cg2d_iters(min,last) =      -1      84
(PID.TID 0000.0001)      cg2d_last_res =   6.54378231049714E-08
(PID.TID 0000.0001) // =======================================================
(PID.TID 0000.0001) // Begin MONITOR dynamic field statistics
(PID.TID 0000.0001) // =======================================================
(PID.TID 0000.0001) %MON time_tsnumber                =                   648
(PID.TID 0000.0001) %MON time_secondsf                =   7.7760000000000E+05
(PID.TID 0000.0001) %MON dynstat_eta_max              =   2.1350225621115E-02
(PID.TID 0000.0001) %MON dynstat_eta_min              =  -1.6111836351288E-02
(PID.TID 0000.0001) %MON dynstat_eta_mean             =  -1.9927279985375E-10
(PID.TID 0000.0001) %MON dynstat_eta_sd               =   1.0693107382343E-02
(PID.TID 0000.0001) %MON dynstat_eta_del2             =   2.1715647857659E-06
(PID.TID 0000.0001) %MON dynstat_uvel_max             =   8.8709466769735E-03
(PID.TID 0000.0001) %MON dynstat_uvel_min             =  -8.8474914730942E-03
(PID.TID 0000.0001) %MON dynstat_uvel_mean            =  -4.7907946683282E-07
(PID.TID 0000.0001) %MON dynstat_uvel_sd              =   4.4502376844183E-03
(PID.TID 0000.0001) %MON dynstat_uvel_del2            =   5.5727397484986E-06
(PID.TID 0000.0001) %MON dynstat_vvel_max             =   1.8523099146055E-02
(PID.TID 0000.0001) %MON dynstat_vvel_min             =  -6.7245682680554E-03
(PID.TID 0000.0001) %MON dynstat_vvel_mean            =  -2.2147261819835E-08
(PID.TID 0000.0001) %MON dynstat_vvel_sd              =   4.9059393852492E-03
(PID.TID 0000.0001) %MON dynstat_vvel_del2            =   9.6071196414892E-06
(PID.TID 0000.0001) %MON dynstat_wvel_max             =   3.0402603901020E-08
(PID.TID 0000.0001) %MON dynstat_wvel_min             =  -1.5752464661000E-08
(PID.TID 0000.0001) %MON dynstat_wvel_mean            =   1.0703742090199E-22
(PID.TID 0000.0001) %MON dynstat_wvel_sd              =   1.3331568495602E-08
(PID.TID 0000.0001) %MON dynstat_wvel_del2            =   4.0200462269618E-12
(PID.TID 0000.0001) %MON dynstat_theta_max            =   2.0000000000000E+01
(PID.TID 0000.0001) %MON dynstat_theta_min            =   2.0000000000000E+01
(PID.TID 0000.0001) %MON dynstat_theta_mean           =   2.0000000000000E+01
(PID.TID 0000.0001) %MON dynstat_theta_sd             =   0.0000000000000E+00
(PID.TID 0000.0001) %MON dynstat_theta_del2           =   0.0000000000000E+00
(PID.TID 0000.0001) %MON dynstat_salt_max             =   3.0000000000000E+01
(PID.TID 0000.0001) %MON dynstat_salt_min             =   3.0000000000000E+01
(PID.TID 0000.0001) %MON dynstat_salt_mean            =   3.0000000000000E+01
(PID.TID 0000.0001) %MON dynstat_salt_sd              =   0.0000000000000E+00
(PID.TID 0000.0001) %MON dynstat_salt_del2            =   0.0000000000000E+00
(PID.TID 0000.0001) %MON trAdv_CFL_u_max              =   5.3149291820656E-04
(PID.TID 0000.0001) %MON trAdv_CFL_v_max              =   1.1092805523380E-03
(PID.TID 0000.0001) %MON trAdv_CFL_w_max              =   7.2955674015800E-09
(PID.TID 0000.0001) %MON advcfl_uvel_max              =   5.3225680061841E-04
(PID.TID 0000.0001) %MON advcfl_vvel_max              =   1.1113859487633E-03
(PID.TID 0000.0001) %MON advcfl_wvel_max              =   1.4593249872490E-08
(PID.TID 0000.0001) %MON advcfl_W_hf_max              =   0.0000000000000E+00
(PID.TID 0000.0001) %MON pe_b_mean                    =   1.1217003712601E-07
(PID.TID 0000.0001) %MON ke_max                       =   1.7134220913737E-04
(PID.TID 0000.0001) %MON ke_mean                      =   2.1570821323702E-05
(PID.TID 0000.0001) %MON ke_vol                       =   7.2000000000000E+15
(PID.TID 0000.0001) %MON vort_r_min                   =  -9.4160477070879E-08
(PID.TID 0000.0001) %MON vort_r_max                   =   6.6597531812808E-07
(PID.TID 0000.0001) %MON vort_a_mean                  =   1.0600000000000E-04
(PID.TID 0000.0001) %MON vort_a_sd                    =   3.5187336134697E-06
(PID.TID 0000.0001) %MON vort_p_mean                  =   1.1130000000000E-04
(PID.TID 0000.0001) %MON vort_p_sd                    =   4.1041323265654E-05
(PID.TID 0000.0001) %MON surfExpan_theta_mean         =   2.1120586760996E-21
(PID.TID 0000.0001) %MON surfExpan_salt_mean          =   3.1971462514472E-21
(PID.TID 0000.0001) // =======================================================
(PID.TID 0000.0001) // End MONITOR dynamic field statistics
(PID.TID 0000.0001) // =======================================================
 cg2d: Sum(rhs),rhsMax =   1.15524429059391E-06  3.44988149077707E-02
 cg2d: Sum(rhs),rhsMax =   1.16112175146260E-06  3.45594624549292E-02
 cg2d: Sum(rhs),rhsMax =   1.16703371824331E-06  3.46201274703359E-02
 cg2d: Sum(rhs),rhsMax =   1.17298041241859E-06  3.46808099148093E-02
 cg2d: Sum(rhs),rhsMax =   1.17896206907123E-06  3.47415097491077E-02
 cg2d: Sum(rhs),rhsMax =   1.18497899151415E-06  3.48022269339320E-02
 cg2d: Sum(rhs),rhsMax =   1.19103162239328E-06  3.48629614299230E-02
 cg2d: Sum(rhs),rhsMax =   1.19711983331827E-06  3.49237131976637E-02
 cg2d: Sum(rhs),rhsMax =   1.20324405345276E-06  3.49844821976799E-02
 cg2d: Sum(rhs),rhsMax =   1.20940479266321E-06  3.50452683904384E-02
 cg2d: Sum(rhs),rhsMax =   1.21560177312671E-06  3.51060717363489E-02
 cg2d: Sum(rhs),rhsMax =   1.22183559801356E-06  3.51668921957617E-02
 cg2d: Sum(rhs),rhsMax =   1.22810643742033E-06  3.52277297289719E-02
 cg2d: Sum(rhs),rhsMax =   1.23441450881889E-06  3.52885842962156E-02
 cg2d: Sum(rhs),rhsMax =   1.24076028703429E-06  3.53494558576723E-02
 cg2d: Sum(rhs),rhsMax =   1.24714359970093E-06  3.54103443734645E-02
 cg2d: Sum(rhs),rhsMax =   1.25356514892039E-06  3.54712498036581E-02
 cg2d: Sum(rhs),rhsMax =   1.26002494204441E-06  3.55321721082610E-02
 cg2d: Sum(rhs),rhsMax =   1.26652343076725E-06  3.55931112472266E-02
 cg2d: Sum(rhs),rhsMax =   1.27306066706120E-06  3.56540671804504E-02
 cg2d: Sum(rhs),rhsMax =   1.27963695360778E-06  3.57150398677714E-02
 cg2d: Sum(rhs),rhsMax =   1.28625282246053E-06  3.57760292689742E-02
 cg2d: Sum(rhs),rhsMax =   1.29290815039859E-06  3.58370353437863E-02
 cg2d: Sum(rhs),rhsMax =   1.29960373024263E-06  3.58980580518798E-02
 cg2d: Sum(rhs),rhsMax =   1.30633923125720E-06  3.59590973528706E-02
 cg2d: Sum(rhs),rhsMax =   1.31311517199278E-06  3.60201532063208E-02
 cg2d: Sum(rhs),rhsMax =   1.31993190713789E-06  3.60812255717351E-02
 cg2d: Sum(rhs),rhsMax =   1.32678973248021E-06  3.61423144085652E-02
 cg2d: Sum(rhs),rhsMax =   1.33368895434416E-06  3.62034196762064E-02
 cg2d: Sum(rhs),rhsMax =   1.34062948018918E-06  3.62645413340001E-02
 cg2d: Sum(rhs),rhsMax =   1.34761212413140E-06  3.63256793412322E-02
 cg2d: Sum(rhs),rhsMax =   1.35463700030522E-06  3.63868336571358E-02
 cg2d: Sum(rhs),rhsMax =   1.36170419164777E-06  3.64480042408880E-02
 cg2d: Sum(rhs),rhsMax =   1.36881426375177E-06  3.65091910516119E-02
 cg2d: Sum(rhs),rhsMax =   1.37596715858029E-06  3.65703940483788E-02
 cg2d: Sum(rhs),rhsMax =   1.38316361200652E-06  3.66316131902037E-02
 cg2d: Sum(rhs),rhsMax =   1.39040368048529E-06  3.66928484360485E-02
 cg2d: Sum(rhs),rhsMax =   1.39768752344810E-06  3.67540997448229E-02
 cg2d: Sum(rhs),rhsMax =   1.40501583441657E-06  3.68153670753820E-02
 cg2d: Sum(rhs),rhsMax =   1.41238841323485E-06  3.68766503865282E-02
 cg2d: Sum(rhs),rhsMax =   1.41980588512156E-06  3.69379496370111E-02
 cg2d: Sum(rhs),rhsMax =   1.42726876535895E-06  3.69992647855272E-02
 cg2d: Sum(rhs),rhsMax =   1.43477665550534E-06  3.70605957907206E-02
 cg2d: Sum(rhs),rhsMax =   1.44233052357112E-06  3.71219426111819E-02
 cg2d: Sum(rhs),rhsMax =   1.44993031386820E-06  3.71833052054512E-02
 cg2d: Sum(rhs),rhsMax =   1.45757659123988E-06  3.72446835320147E-02
 cg2d: Sum(rhs),rhsMax =   1.46526945609196E-06  3.73060775493077E-02
 cg2d: Sum(rhs),rhsMax =   1.47300941451614E-06  3.73674872157130E-02
 cg2d: Sum(rhs),rhsMax =   1.48079651782554E-06  3.74289124895619E-02
 cg2d: Sum(rhs),rhsMax =   1.48863133113061E-06  3.74903533291334E-02
 cg2d: Sum(rhs),rhsMax =   1.49651410840876E-06  3.75518096926567E-02
 cg2d: Sum(rhs),rhsMax =   1.50444524719962E-06  3.76132815383088E-02
 cg2d: Sum(rhs),rhsMax =   1.51242491303050E-06  3.76747688242154E-02
 cg2d: Sum(rhs),rhsMax =   1.52045336343845E-06  3.77362715084515E-02
 cg2d: Sum(rhs),rhsMax =   1.52853125417324E-06  3.77977895490416E-02
 cg2d: Sum(rhs),rhsMax =   1.53665863070543E-06  3.78593229039593E-02
 cg2d: Sum(rhs),rhsMax =   1.54483589584475E-06  3.79208715311277E-02
 cg2d: Sum(rhs),rhsMax =   1.55306339087724E-06  3.79824353884201E-02
 cg2d: Sum(rhs),rhsMax =   1.56134156802448E-06  3.80440144336592E-02
 cg2d: Sum(rhs),rhsMax =   1.56967052396956E-06  3.81056086246173E-02
 cg2d: Sum(rhs),rhsMax =   1.57805080854001E-06  3.81672179190181E-02
 cg2d: Sum(rhs),rhsMax =   1.58648281141024E-06  3.82288422745351E-02
 cg2d: Sum(rhs),rhsMax =   1.59496652871530E-06  3.82904816487918E-02
 cg2d: Sum(rhs),rhsMax =   1.60350273172016E-06  3.83521359993629E-02
 cg2d: Sum(rhs),rhsMax =   1.61209130395551E-06  3.84138052837731E-02
 cg2d: Sum(rhs),rhsMax =   1.62073298854565E-06  3.84754894594994E-02
 cg2d: Sum(rhs),rhsMax =   1.62942778889411E-06  3.85371884839687E-02
 cg2d: Sum(rhs),rhsMax =   1.63817672076474E-06  3.85989023145600E-02
 cg2d: Sum(rhs),rhsMax =   1.64697951714199E-06  3.86606309086037E-02
 cg2d: Sum(rhs),rhsMax =   1.65583681557141E-06  3.87223742233804E-02
 cg2d: Sum(rhs),rhsMax =   1.66474880003084E-06  3.87841322161252E-02
 cg2d: Sum(rhs),rhsMax =   1.67371572170477E-06  3.88459048440218E-02
(PID.TID 0000.0001)      cg2d_init_res =   1.08663366342417E-02
(PID.TID 0000.0001)      cg2d_iters(min,last) =      -1      84
(PID.TID 0000.0001)      cg2d_last_res =   6.17238624140706E-08
(PID.TID 0000.0001) // =======================================================
(PID.TID 0000.0001) // Begin MONITOR dynamic field statistics
(PID.TID 0000.0001) // =======================================================
(PID.TID 0000.0001) %MON time_tsnumber                =                   720
(PID.TID 0000.0001) %MON time_secondsf                =   8.6400000000000E+05
(PID.TID 0000.0001) %MON dynstat_eta_max              =   2.3707221246007E-02
(PID.TID 0000.0001) %MON dynstat_eta_min              =  -1.7422152382367E-02
(PID.TID 0000.0001) %MON dynstat_eta_mean             =  -3.2735728398164E-10
(PID.TID 0000.0001) %MON dynstat_eta_sd               =   1.1741805708754E-02
(PID.TID 0000.0001) %MON dynstat_eta_del2             =   2.5081693700325E-06
(PID.TID 0000.0001) %MON dynstat_uvel_max             =   9.7791291505077E-03
(PID.TID 0000.0001) %MON dynstat_uvel_min             =  -9.7421794655097E-03
(PID.TID 0000.0001) %MON dynstat_uvel_mean            =  -5.0796612205413E-07
(PID.TID 0000.0001) %MON dynstat_uvel_sd              =   4.8494243351591E-03
(PID.TID 0000.0001) %MON dynstat_uvel_del2            =   6.1746114567459E-06
(PID.TID 0000.0001) %MON dynstat_vvel_max             =   2.1085886064223E-02
(PID.TID 0000.0001) %MON dynstat_vvel_min             =  -6.9100451846742E-03
(PID.TID 0000.0001) %MON dynstat_vvel_mean            =  -1.9736810697530E-08
(PID.TID 0000.0001) %MON dynstat_vvel_sd              =   5.4420682448454E-03
(PID.TID 0000.0001) %MON dynstat_vvel_del2            =   1.1157738737505E-05
(PID.TID 0000.0001) %MON dynstat_wvel_max             =   3.0794719453988E-08
(PID.TID 0000.0001) %MON dynstat_wvel_min             =  -1.4586065525473E-08
(PID.TID 0000.0001) %MON dynstat_wvel_mean            =   5.0269085881559E-22
(PID.TID 0000.0001) %MON dynstat_wvel_sd              =   1.3088394730223E-08
(PID.TID 0000.0001) %MON dynstat_wvel_del2            =   4.2130037391997E-12
(PID.TID 0000.0001) %MON dynstat_theta_max            =   2.0000000000000E+01
(PID.TID 0000.0001) %MON dynstat_theta_min            =   2.0000000000000E+01
(PID.TID 0000.0001) %MON dynstat_theta_mean           =   2.0000000000000E+01
(PID.TID 0000.0001) %MON dynstat_theta_sd             =   0.0000000000000E+00
(PID.TID 0000.0001) %MON dynstat_theta_del2           =   0.0000000000000E+00
(PID.TID 0000.0001) %MON dynstat_salt_max             =   3.0000000000000E+01
(PID.TID 0000.0001) %MON dynstat_salt_min             =   3.0000000000000E+01
(PID.TID 0000.0001) %MON dynstat_salt_mean            =   3.0000000000000E+01
(PID.TID 0000.0001) %MON dynstat_salt_sd              =   0.0000000000000E+00
(PID.TID 0000.0001) %MON dynstat_salt_del2            =   0.0000000000000E+00
(PID.TID 0000.0001) %MON trAdv_CFL_u_max              =   5.8600087489430E-04
(PID.TID 0000.0001) %MON trAdv_CFL_v_max              =   1.2629895147821E-03
(PID.TID 0000.0001) %MON trAdv_CFL_w_max              =   7.3898085349007E-09
(PID.TID 0000.0001) %MON advcfl_uvel_max              =   5.8674774903046E-04
(PID.TID 0000.0001) %MON advcfl_vvel_max              =   1.2651531638534E-03
(PID.TID 0000.0001) %MON advcfl_wvel_max              =   1.4781465337914E-08
(PID.TID 0000.0001) %MON advcfl_W_hf_max              =   0.0000000000000E+00
(PID.TID 0000.0001) %MON pe_b_mean                    =   1.3525047127738E-07
(PID.TID 0000.0001) %MON ke_max                       =   2.2204312323127E-04
(PID.TID 0000.0001) %MON ke_mean                      =   2.6123736516016E-05
(PID.TID 0000.0001) %MON ke_vol                       =   7.2000000000000E+15
(PID.TID 0000.0001) %MON vort_r_min                   =  -1.1202307093713E-07
(PID.TID 0000.0001) %MON vort_r_max                   =   7.4314114109410E-07
(PID.TID 0000.0001) %MON vort_a_mean                  =   1.0600000000000E-04
(PID.TID 0000.0001) %MON vort_a_sd                    =   3.5189559435459E-06
(PID.TID 0000.0001) %MON vort_p_mean                  =   1.1130000000000E-04
(PID.TID 0000.0001) %MON vort_p_sd                    =   4.1048477413660E-05
(PID.TID 0000.0001) %MON surfExpan_theta_mean         =   1.0173708788999E-20
(PID.TID 0000.0001) %MON surfExpan_salt_mean          =   1.5285826925214E-20
(PID.TID 0000.0001) // =======================================================
(PID.TID 0000.0001) // End MONITOR dynamic field statistics
(PID.TID 0000.0001) // =======================================================
 cg2d: Sum(rhs),rhsMax =   1.68273812069589E-06  3.89076920642083E-02
 cg2d: Sum(rhs),rhsMax =   1.69181659987611E-06  3.89694938337741E-02
 cg2d: Sum(rhs),rhsMax =   1.70095108814258E-06  3.90313101097624E-02
 cg2d: Sum(rhs),rhsMax =   1.71014227570709E-06  3.90931408491660E-02
 cg2d: Sum(rhs),rhsMax =   1.71939044996128E-06  3.91549860089325E-02
 cg2d: Sum(rhs),rhsMax =   1.72869586693297E-06  3.92168455459623E-02
 cg2d: Sum(rhs),rhsMax =   1.73805898059584E-06  3.92787194171084E-02
 cg2d: Sum(rhs),rhsMax =   1.74748043897319E-06  3.93406075791765E-02
 cg2d: Sum(rhs),rhsMax =   1.75696028764660E-06  3.94025099889262E-02
 cg2d: Sum(rhs),rhsMax =   1.76649891220002E-06  3.94644266030701E-02
 cg2d: Sum(rhs),rhsMax =   1.77609683698135E-06  3.95263573782750E-02
 cg2d: Sum(rhs),rhsMax =   1.78575429983854E-06  3.95883022711610E-02
 cg2d: Sum(rhs),rhsMax =   1.79547190770971E-06  3.96502612383029E-02
 cg2d: Sum(rhs),rhsMax =   1.80524986326952E-06  3.97122342362269E-02
 cg2d: Sum(rhs),rhsMax =   1.81508858678250E-06  3.97742212214177E-02
 cg2d: Sum(rhs),rhsMax =   1.82498862337857E-06  3.98362221503108E-02
 cg2d: Sum(rhs),rhsMax =   1.83495022853392E-06  3.98982369792980E-02
 cg2d: Sum(rhs),rhsMax =   1.84497363206471E-06  3.99602656647247E-02
 cg2d: Sum(rhs),rhsMax =   1.85505964173799E-06  4.00223081628923E-02
 cg2d: Sum(rhs),rhsMax =   1.86520837564333E-06  4.00843644300562E-02
 cg2d: Sum(rhs),rhsMax =   1.87542038302194E-06  4.01464344224267E-02
 cg2d: Sum(rhs),rhsMax =   1.88569596557345E-06  4.02085180961713E-02
 cg2d: Sum(rhs),rhsMax =   1.89603554094642E-06  4.02706154074108E-02
 cg2d: Sum(rhs),rhsMax =   1.90643969683393E-06  4.03327263122228E-02
 cg2d: Sum(rhs),rhsMax =   1.91690847207299E-06  4.03948507666396E-02
 cg2d: Sum(rhs),rhsMax =   1.92744299858452E-06  4.04569887266510E-02
 cg2d: Sum(rhs),rhsMax =   1.93804287766663E-06  4.05191401482015E-02
 cg2d: Sum(rhs),rhsMax =   1.94870892712695E-06  4.05813049871921E-02
 cg2d: Sum(rhs),rhsMax =   1.95944158233596E-06  4.06434831994805E-02
 cg2d: Sum(rhs),rhsMax =   1.97024118440969E-06  4.07056747408801E-02
 cg2d: Sum(rhs),rhsMax =   1.98110821109793E-06  4.07678795671623E-02
 cg2d: Sum(rhs),rhsMax =   1.99204312873250E-06  4.08300976340540E-02
 cg2d: Sum(rhs),rhsMax =   2.00304632705373E-06  4.08923288972396E-02
 cg2d: Sum(rhs),rhsMax =   2.01411812448052E-06  4.09545733123610E-02
 cg2d: Sum(rhs),rhsMax =   2.02525915151894E-06  4.10168308350165E-02
 cg2d: Sum(rhs),rhsMax =   2.03646975893354E-06  4.10791014207625E-02
 cg2d: Sum(rhs),rhsMax =   2.04775036029975E-06  4.11413850251132E-02
 cg2d: Sum(rhs),rhsMax =   2.05910167143733E-06  4.12036816035390E-02
 cg2d: Sum(rhs),rhsMax =   2.07052389317175E-06  4.12659911114699E-02
 cg2d: Sum(rhs),rhsMax =   2.08201729080121E-06  4.13283135042929E-02
 cg2d: Sum(rhs),rhsMax =   2.09358273304747E-06  4.13906487373545E-02
 cg2d: Sum(rhs),rhsMax =   2.10522052787251E-06  4.14529967659568E-02
 cg2d: Sum(rhs),rhsMax =   2.11693098592369E-06  4.15153575453628E-02
 cg2d: Sum(rhs),rhsMax =   2.12871480542720E-06  4.15777310307942E-02
 cg2d: Sum(rhs),rhsMax =   2.14057208992174E-06  4.16401171774292E-02
 cg2d: Sum(rhs),rhsMax =   2.15250374005493E-06  4.17025159404074E-02
 cg2d: Sum(rhs),rhsMax =   2.16450995521589E-06  4.17649272748258E-02
 cg2d: Sum(rhs),rhsMax =   2.17659108132581E-06  4.18273511357423E-02
 cg2d: Sum(rhs),rhsMax =   2.18874782195039E-06  4.18897874781714E-02
 cg2d: Sum(rhs),rhsMax =   2.20098074413602E-06  4.19522362570901E-02
 cg2d: Sum(rhs),rhsMax =   2.21328998345829E-06  4.20146974274333E-02
 cg2d: Sum(rhs),rhsMax =   2.22567640111720E-06  4.20771709440961E-02
 cg2d: Sum(rhs),rhsMax =   2.23814002614162E-06  4.21396567619338E-02
 cg2d: Sum(rhs),rhsMax =   2.25068187739014E-06  4.22021548357615E-02
 cg2d: Sum(rhs),rhsMax =   2.26330214526949E-06  4.22646651203550E-02
 cg2d: Sum(rhs),rhsMax =   2.27600141642498E-06  4.23271875704497E-02
 cg2d: Sum(rhs),rhsMax =   2.28878010371039E-06  4.23897221407426E-02
 cg2d: Sum(rhs),rhsMax =   2.30163880196588E-06  4.24522687858899E-02
 cg2d: Sum(rhs),rhsMax =   2.31457771883783E-06  4.25148274605111E-02
 cg2d: Sum(rhs),rhsMax =   2.32759758509241E-06  4.25773981191838E-02
 cg2d: Sum(rhs),rhsMax =   2.34069899986145E-06  4.26399807164485E-02
 cg2d: Sum(rhs),rhsMax =   2.35388220510072E-06  4.27025752068069E-02
 cg2d: Sum(rhs),rhsMax =   2.36714801286203E-06  4.27651815447217E-02
 cg2d: Sum(rhs),rhsMax =   2.38049672481380E-06  4.28277996846175E-02
 cg2d: Sum(rhs),rhsMax =   2.39392906412061E-06  4.28904295808808E-02
 cg2d: Sum(rhs),rhsMax =   2.40744506117829E-06  4.29530711878586E-02
 cg2d: Sum(rhs),rhsMax =   2.42104583486266E-06  4.30157244598619E-02
 cg2d: Sum(rhs),rhsMax =   2.43473151341142E-06  4.30783893511628E-02
 cg2d: Sum(rhs),rhsMax =   2.44850262978713E-06  4.31410658159958E-02
 cg2d: Sum(rhs),rhsMax =   2.46235998593511E-06  4.32037538085576E-02
 cg2d: Sum(rhs),rhsMax =   2.47630383823708E-06  4.32664532830089E-02
 cg2d: Sum(rhs),rhsMax =   2.49033489645861E-06  4.33291641934713E-02
(PID.TID 0000.0001)      cg2d_init_res =   9.86655891060433E-03
(PID.TID 0000.0001)      cg2d_iters(min,last) =      -1      84
(PID.TID 0000.0001)      cg2d_last_res =   5.93348774419186E-08
(PID.TID 0000.0001) // =======================================================
(PID.TID 0000.0001) // Begin MONITOR dynamic field statistics
(PID.TID 0000.0001) // =======================================================
(PID.TID 0000.0001) %MON time_tsnumber                =                   792
(PID.TID 0000.0001) %MON time_secondsf                =   9.5040000000000E+05
(PID.TID 0000.0001) %MON dynstat_eta_max              =   2.6067123039750E-02
(PID.TID 0000.0001) %MON dynstat_eta_min              =  -1.8629502958565E-02
(PID.TID 0000.0001) %MON dynstat_eta_mean             =  -5.4336477124108E-10
(PID.TID 0000.0001) %MON dynstat_eta_sd               =   1.2749587462160E-02
(PID.TID 0000.0001) %MON dynstat_eta_del2             =   2.8593900820959E-06
(PID.TID 0000.0001) %MON dynstat_uvel_max             =   1.0662493647764E-02
(PID.TID 0000.0001) %MON dynstat_uvel_min             =  -1.0606708989562E-02
(PID.TID 0000.0001) %MON dynstat_uvel_mean            =  -5.3085921938233E-07
(PID.TID 0000.0001) %MON dynstat_uvel_sd              =   5.2236830969235E-03
(PID.TID 0000.0001) %MON dynstat_uvel_del2            =   6.7204217373472E-06
(PID.TID 0000.0001) %MON dynstat_vvel_max             =   2.3713181899165E-02
(PID.TID 0000.0001) %MON dynstat_vvel_min             =  -7.0043397583505E-03
(PID.TID 0000.0001) %MON dynstat_vvel_mean            =  -1.7107523217764E-08
(PID.TID 0000.0001) %MON dynstat_vvel_sd              =   5.9757983845335E-03
(PID.TID 0000.0001) %MON dynstat_vvel_del2            =   1.2770804249031E-05
(PID.TID 0000.0001) %MON dynstat_wvel_max             =   3.1145682538190E-08
(PID.TID 0000.0001) %MON dynstat_wvel_min             =  -1.3542158590863E-08
(PID.TID 0000.0001) %MON dynstat_wvel_mean            =   1.5208570403047E-22
(PID.TID 0000.0001) %MON dynstat_wvel_sd              =   1.2826573537533E-08
(PID.TID 0000.0001) %MON dynstat_wvel_del2            =   4.3967553217977E-12
(PID.TID 0000.0001) %MON dynstat_theta_max            =   2.0000000000000E+01
(PID.TID 0000.0001) %MON dynstat_theta_min            =   2.0000000000000E+01
(PID.TID 0000.0001) %MON dynstat_theta_mean           =   2.0000000000000E+01
(PID.TID 0000.0001) %MON dynstat_theta_sd             =   0.0000000000000E+00
(PID.TID 0000.0001) %MON dynstat_theta_del2           =   0.0000000000000E+00
(PID.TID 0000.0001) %MON dynstat_salt_max             =   3.0000000000000E+01
(PID.TID 0000.0001) %MON dynstat_salt_min             =   3.0000000000000E+01
(PID.TID 0000.0001) %MON dynstat_salt_mean            =   3.0000000000000E+01
(PID.TID 0000.0001) %MON dynstat_salt_sd              =   0.0000000000000E+00
(PID.TID 0000.0001) %MON dynstat_salt_del2            =   0.0000000000000E+00
(PID.TID 0000.0001) %MON trAdv_CFL_u_max              =   6.3902012979618E-04
(PID.TID 0000.0001) %MON trAdv_CFL_v_max              =   1.4205779392182E-03
(PID.TID 0000.0001) %MON trAdv_CFL_w_max              =   7.4741353574675E-09
(PID.TID 0000.0001) %MON advcfl_uvel_max              =   6.3974961886581E-04
(PID.TID 0000.0001) %MON advcfl_vvel_max              =   1.4227909139499E-03
(PID.TID 0000.0001) %MON advcfl_wvel_max              =   1.4949927618331E-08
(PID.TID 0000.0001) %MON advcfl_W_hf_max              =   0.0000000000000E+00
(PID.TID 0000.0001) %MON pe_b_mean                    =   1.5946349282661E-07
(PID.TID 0000.0001) %MON ke_max                       =   2.8083580087745E-04
(PID.TID 0000.0001) %MON ke_mean                      =   3.0973540591626E-05
(PID.TID 0000.0001) %MON ke_vol                       =   7.2000000000000E+15
(PID.TID 0000.0001) %MON vort_r_min                   =  -1.3141982370338E-07
(PID.TID 0000.0001) %MON vort_r_max                   =   8.2089935346807E-07
(PID.TID 0000.0001) %MON vort_a_mean                  =   1.0600000000000E-04
(PID.TID 0000.0001) %MON vort_a_sd                    =   3.5192051860156E-06
(PID.TID 0000.0001) %MON vort_p_mean                  =   1.1130000000000E-04
(PID.TID 0000.0001) %MON vort_p_sd                    =   4.1055099607035E-05
(PID.TID 0000.0001) %MON surfExpan_theta_mean         =   3.0910187989422E-21
(PID.TID 0000.0001) %MON surfExpan_salt_mean          =   4.6365281984132E-21
(PID.TID 0000.0001) // =======================================================
(PID.TID 0000.0001) // End MONITOR dynamic field statistics
(PID.TID 0000.0001) // =======================================================
 cg2d: Sum(rhs),rhsMax =   2.50445332624152E-06  4.33918864940306E-02
 cg2d: Sum(rhs),rhsMax =   2.51866016293123E-06  4.34546201387347E-02
 cg2d: Sum(rhs),rhsMax =   2.53295573172246E-06  4.35173650815956E-02
 cg2d: Sum(rhs),rhsMax =   2.54734046820429E-06  4.35801212765889E-02
 cg2d: Sum(rhs),rhsMax =   2.56181492543084E-06  4.36428886776519E-02
 cg2d: Sum(rhs),rhsMax =   2.57638004779945E-06  4.37056672386872E-02
 cg2d: Sum(rhs),rhsMax =   2.59103588093682E-06  4.37684569135608E-02
 cg2d: Sum(rhs),rhsMax =   2.60578300606204E-06  4.38312576561032E-02
 cg2d: Sum(rhs),rhsMax =   2.62062238822608E-06  4.38940694201068E-02
 cg2d: Sum(rhs),rhsMax =   2.63555422264083E-06  4.39568921593313E-02
 cg2d: Sum(rhs),rhsMax =   2.65057906343596E-06  4.40197258274981E-02
 cg2d: Sum(rhs),rhsMax =   2.66569746300294E-06  4.40825703782949E-02
 cg2d: Sum(rhs),rhsMax =   2.68091013673130E-06  4.41454257653730E-02
 cg2d: Sum(rhs),rhsMax =   2.69621763145447E-06  4.42082919423487E-02
 cg2d: Sum(rhs),rhsMax =   2.71162038361847E-06  4.42711688628047E-02
 cg2d: Sum(rhs),rhsMax =   2.72711898912162E-06  4.43340564802860E-02
 cg2d: Sum(rhs),rhsMax =   2.74271420159719E-06  4.43969547483053E-02
 cg2d: Sum(rhs),rhsMax =   2.75840632574936E-06  4.44598636203395E-02
 cg2d: Sum(rhs),rhsMax =   2.77419614909055E-06  4.45227830498313E-02
 cg2d: Sum(rhs),rhsMax =   2.79008421650087E-06  4.45857129901893E-02
 cg2d: Sum(rhs),rhsMax =   2.80607091485488E-06  4.46486533947872E-02
 cg2d: Sum(rhs),rhsMax =   2.82215709060743E-06  4.47116042169662E-02
 cg2d: Sum(rhs),rhsMax =   2.83834321770232E-06  4.47745654100316E-02
 cg2d: Sum(rhs),rhsMax =   2.85462973095840E-06  4.48375369272564E-02
 cg2d: Sum(rhs),rhsMax =   2.87101739274501E-06  4.49005187218795E-02
 cg2d: Sum(rhs),rhsMax =   2.88750659554679E-06  4.49635107471059E-02
 cg2d: Sum(rhs),rhsMax =   2.90409828125962E-06  4.50265129561084E-02
 cg2d: Sum(rhs),rhsMax =   2.92079270653584E-06  4.50895253020260E-02
 cg2d: Sum(rhs),rhsMax =   2.93759066567062E-06  4.51525477379645E-02
 cg2d: Sum(rhs),rhsMax =   2.95449261676281E-06  4.52155802169963E-02
 cg2d: Sum(rhs),rhsMax =   2.97149926258705E-06  4.52786226921625E-02
 cg2d: Sum(rhs),rhsMax =   2.99452514117282E-06  4.53416751324212E-02
 cg2d: Sum(rhs),rhsMax =   3.01766361426523E-06  4.54047374666121E-02
 cg2d: Sum(rhs),rhsMax =   3.04091698839423E-06  4.54678096484802E-02
 cg2d: Sum(rhs),rhsMax =   3.06428384012555E-06  4.55308916377447E-02
 cg2d: Sum(rhs),rhsMax =   3.08776426422019E-06  4.55939833879438E-02
 cg2d: Sum(rhs),rhsMax =   3.11135914126195E-06  4.56570848521154E-02
 cg2d: Sum(rhs),rhsMax =   3.13506941013175E-06  4.57201959830179E-02
 cg2d: Sum(rhs),rhsMax =   3.15889619732432E-06  4.57833167333167E-02
 cg2d: Sum(rhs),rhsMax =   3.18284043054548E-06  4.58464470556822E-02
 cg2d: Sum(rhs),rhsMax =   3.20690323738285E-06  4.59095869027905E-02
 cg2d: Sum(rhs),rhsMax =   3.23108474886355E-06  4.59727362273208E-02
 cg2d: Sum(rhs),rhsMax =   3.25538634806180E-06  4.60358949819403E-02
 cg2d: Sum(rhs),rhsMax =   3.27980801804670E-06  4.60990631192928E-02
 cg2d: Sum(rhs),rhsMax =   3.30435092818493E-06  4.61622405919884E-02
 cg2d: Sum(rhs),rhsMax =   3.32901603119357E-06  4.62254273525990E-02
 cg2d: Sum(rhs),rhsMax =   3.35380417780529E-06  4.62886233536594E-02
 cg2d: Sum(rhs),rhsMax =   3.37871568809045E-06  4.63518285476713E-02
 cg2d: Sum(rhs),rhsMax =   3.40375193605413E-06  4.64150428871072E-02
 cg2d: Sum(rhs),rhsMax =   3.42891348906194E-06  4.64782663244112E-02
 cg2d: Sum(rhs),rhsMax =   3.45420124906598E-06  4.65414988119992E-02
 cg2d: Sum(rhs),rhsMax =   3.47961605271299E-06  4.66047403022570E-02
 cg2d: Sum(rhs),rhsMax =   3.50515847395011E-06  4.66679907475423E-02
 cg2d: Sum(rhs),rhsMax =   3.53082959134512E-06  4.67312501001805E-02
 cg2d: Sum(rhs),rhsMax =   3.55663022848576E-06  4.67945183124696E-02
 cg2d: Sum(rhs),rhsMax =   3.58256128610984E-06  4.68577953366780E-02
 cg2d: Sum(rhs),rhsMax =   3.60862334925285E-06  4.69210811250434E-02
 cg2d: Sum(rhs),rhsMax =   3.63481726321085E-06  4.69843756297766E-02
 cg2d: Sum(rhs),rhsMax =   3.66114418893018E-06  4.70476788030593E-02
 cg2d: Sum(rhs),rhsMax =   3.68760466989970E-06  4.71109905970443E-02
 cg2d: Sum(rhs),rhsMax =   3.71419964966674E-06  4.71743109638550E-02
 cg2d: Sum(rhs),rhsMax =   3.74093006055842E-06  4.72376398555881E-02
 cg2d: Sum(rhs),rhsMax =   3.76779682973935E-06  4.73009772243116E-02
 cg2d: Sum(rhs),rhsMax =   3.79480077823680E-06  4.73643230220644E-02
 cg2d: Sum(rhs),rhsMax =   3.82194253133530E-06  4.74276772008591E-02
 cg2d: Sum(rhs),rhsMax =   3.84922327558573E-06  4.74910397126781E-02
 cg2d: Sum(rhs),rhsMax =   3.87664370646301E-06  4.75544105094790E-02
 cg2d: Sum(rhs),rhsMax =   3.90420465033042E-06  4.76177895431901E-02
 cg2d: Sum(rhs),rhsMax =   3.93190716310027E-06  4.76811767657125E-02
 cg2d: Sum(rhs),rhsMax =   3.95975192186981E-06  4.77445721289200E-02
 cg2d: Sum(rhs),rhsMax =   3.98773980885003E-06  4.78079755846619E-02
 cg2d: Sum(rhs),rhsMax =   4.01587183847946E-06  4.78713870847556E-02
(PID.TID 0000.0001)      cg2d_init_res =   9.02923873568343E-03
(PID.TID 0000.0001)      cg2d_iters(min,last) =      -1      83
(PID.TID 0000.0001)      cg2d_last_res =   9.78815942906144E-08
(PID.TID 0000.0001) // =======================================================
(PID.TID 0000.0001) // Begin MONITOR dynamic field statistics
(PID.TID 0000.0001) // =======================================================
(PID.TID 0000.0001) %MON time_tsnumber                =                   864
(PID.TID 0000.0001) %MON time_secondsf                =   1.0368000000000E+06
(PID.TID 0000.0001) %MON dynstat_eta_max              =   2.8410283959156E-02
(PID.TID 0000.0001) %MON dynstat_eta_min              =  -1.9730219699386E-02
(PID.TID 0000.0001) %MON dynstat_eta_mean             =  -9.6927751364072E-10
(PID.TID 0000.0001) %MON dynstat_eta_sd               =   1.3713271752065E-02
(PID.TID 0000.0001) %MON dynstat_eta_del2             =   3.2242462136187E-06
(PID.TID 0000.0001) %MON dynstat_uvel_max             =   1.1518103865246E-02
(PID.TID 0000.0001) %MON dynstat_uvel_min             =  -1.1437583106252E-02
(PID.TID 0000.0001) %MON dynstat_uvel_mean            =  -5.4763155689807E-07
(PID.TID 0000.0001) %MON dynstat_uvel_sd              =   5.5719317538564E-03
(PID.TID 0000.0001) %MON dynstat_uvel_del2            =   7.2082415521189E-06
(PID.TID 0000.0001) %MON dynstat_vvel_max             =   2.6394060400082E-02
(PID.TID 0000.0001) %MON dynstat_vvel_min             =  -7.0360112627025E-03
(PID.TID 0000.0001) %MON dynstat_vvel_mean            =  -1.4283369660472E-08
(PID.TID 0000.0001) %MON dynstat_vvel_sd              =   6.5062602408832E-03
(PID.TID 0000.0001) %MON dynstat_vvel_del2            =   1.4444256011161E-05
(PID.TID 0000.0001) %MON dynstat_wvel_max             =   3.1434646882117E-08
(PID.TID 0000.0001) %MON dynstat_wvel_min             =  -1.2779091224947E-08
(PID.TID 0000.0001) %MON dynstat_wvel_mean            =  -8.4738126639018E-22
(PID.TID 0000.0001) %MON dynstat_wvel_sd              =   1.2548122318612E-08
(PID.TID 0000.0001) %MON dynstat_wvel_del2            =   4.5733414145851E-12
(PID.TID 0000.0001) %MON dynstat_theta_max            =   2.0000000000000E+01
(PID.TID 0000.0001) %MON dynstat_theta_min            =   2.0000000000000E+01
(PID.TID 0000.0001) %MON dynstat_theta_mean           =   2.0000000000000E+01
(PID.TID 0000.0001) %MON dynstat_theta_sd             =   0.0000000000000E+00
(PID.TID 0000.0001) %MON dynstat_theta_del2           =   0.0000000000000E+00
(PID.TID 0000.0001) %MON dynstat_salt_max             =   3.0000000000000E+01
(PID.TID 0000.0001) %MON dynstat_salt_min             =   3.0000000000000E+01
(PID.TID 0000.0001) %MON dynstat_salt_mean            =   3.0000000000000E+01
(PID.TID 0000.0001) %MON dynstat_salt_sd              =   0.0000000000000E+00
(PID.TID 0000.0001) %MON dynstat_salt_del2            =   0.0000000000000E+00
(PID.TID 0000.0001) %MON trAdv_CFL_u_max              =   6.9037408613783E-04
(PID.TID 0000.0001) %MON trAdv_CFL_v_max              =   1.5813905956329E-03
(PID.TID 0000.0001) %MON trAdv_CFL_w_max              =   7.5435414520092E-09
(PID.TID 0000.0001) %MON advcfl_uvel_max              =   6.9108623191477E-04
(PID.TID 0000.0001) %MON advcfl_vvel_max              =   1.5836436240049E-03
(PID.TID 0000.0001) %MON advcfl_wvel_max              =   1.5088630503416E-08
(PID.TID 0000.0001) %MON advcfl_W_hf_max              =   0.0000000000000E+00
(PID.TID 0000.0001) %MON pe_b_mean                    =   1.8448079952522E-07
(PID.TID 0000.0001) %MON ke_max                       =   3.4794229807079E-04
(PID.TID 0000.0001) %MON ke_mean                      =   3.6077440995152E-05
(PID.TID 0000.0001) %MON ke_vol                       =   7.2000000000000E+15
(PID.TID 0000.0001) %MON vort_r_min                   =  -1.5233118199357E-07
(PID.TID 0000.0001) %MON vort_r_max                   =   8.9901904844396E-07
(PID.TID 0000.0001) %MON vort_a_mean                  =   1.0600000000000E-04
(PID.TID 0000.0001) %MON vort_a_sd                    =   3.5194822174971E-06
(PID.TID 0000.0001) %MON vort_p_mean                  =   1.1130000000000E-04
(PID.TID 0000.0001) %MON vort_p_sd                    =   4.1061255400002E-05
(PID.TID 0000.0001) %MON surfExpan_theta_mean         =  -1.6924812169034E-20
(PID.TID 0000.0001) %MON surfExpan_salt_mean          =  -2.5395113172837E-20
(PID.TID 0000.0001) // =======================================================
(PID.TID 0000.0001) // End MONITOR dynamic field statistics
(PID.TID 0000.0001) // =======================================================
 cg2d: Sum(rhs),rhsMax =   4.04414905104747E-06  4.79348065809957E-02
 cg2d: Sum(rhs),rhsMax =   4.07257203244998E-06  4.79982340251494E-02
 cg2d: Sum(rhs),rhsMax =   4.10114186967861E-06  4.80616693689548E-02
 cg2d: Sum(rhs),rhsMax =   4.12985939133442E-06  4.81251125641280E-02
 cg2d: Sum(rhs),rhsMax =   4.15872547409116E-06  4.81885635623546E-02
 cg2d: Sum(rhs),rhsMax =   4.18774111224374E-06  4.82520223152976E-02
 cg2d: Sum(rhs),rhsMax =   4.21690731575858E-06  4.83154887745903E-02
 cg2d: Sum(rhs),rhsMax =   4.24622463143440E-06  4.83789628918441E-02
 cg2d: Sum(rhs),rhsMax =   4.27569412377038E-06  4.84424446186422E-02
 cg2d: Sum(rhs),rhsMax =   4.30531680697954E-06  4.85059339065419E-02
 cg2d: Sum(rhs),rhsMax =   4.33509353811937E-06  4.85694307070773E-02
 cg2d: Sum(rhs),rhsMax =   4.36502510334572E-06  4.86329349717552E-02
 cg2d: Sum(rhs),rhsMax =   4.39511264164333E-06  4.86964466520588E-02
 cg2d: Sum(rhs),rhsMax =   4.42535692381230E-06  4.87599656994448E-02
 cg2d: Sum(rhs),rhsMax =   4.45575880270513E-06  4.88234920653452E-02
 cg2d: Sum(rhs),rhsMax =   4.48631939657315E-06  4.88870257011684E-02
 cg2d: Sum(rhs),rhsMax =   4.51703966582867E-06  4.89505665582981E-02
 cg2d: Sum(rhs),rhsMax =   4.54792029406376E-06  4.90141145880922E-02
 cg2d: Sum(rhs),rhsMax =   4.57896231587443E-06  4.90776697418853E-02
 cg2d: Sum(rhs),rhsMax =   4.61016676998882E-06  4.91412319709871E-02
 cg2d: Sum(rhs),rhsMax =   4.64153411103979E-06  4.92048012266848E-02
 cg2d: Sum(rhs),rhsMax =   4.67306600393166E-06  4.92683774602395E-02
 cg2d: Sum(rhs),rhsMax =   4.70476309938350E-06  4.93319606228906E-02
 cg2d: Sum(rhs),rhsMax =   4.73662600858002E-06  4.93955506658524E-02
 cg2d: Sum(rhs),rhsMax =   4.76865585566713E-06  4.94591475403163E-02
 cg2d: Sum(rhs),rhsMax =   4.80085377150760E-06  4.95227511974504E-02
 cg2d: Sum(rhs),rhsMax =   4.83322054388793E-06  4.95863615883986E-02
 cg2d: Sum(rhs),rhsMax =   4.86575689639598E-06  4.96499786642841E-02
 cg2d: Sum(rhs),rhsMax =   4.89846410032385E-06  4.97136023762041E-02
 cg2d: Sum(rhs),rhsMax =   4.93134272463655E-06  4.97772326752349E-02
 cg2d: Sum(rhs),rhsMax =   4.96439413366287E-06  4.98408695124303E-02
 cg2d: Sum(rhs),rhsMax =   4.99761890060055E-06  4.99045128388202E-02
 cg2d: Sum(rhs),rhsMax =   5.03101825572241E-06  4.99681626054128E-02
 cg2d: Sum(rhs),rhsMax =   5.06459290291333E-06  5.00318187631945E-02
 cg2d: Sum(rhs),rhsMax =   5.09834378704249E-06  5.00954812631285E-02
 cg2d: Sum(rhs),rhsMax =   5.13227171704961E-06  5.01591500561577E-02
 cg2d: Sum(rhs),rhsMax =   5.16637785599391E-06  5.02228250932005E-02
 cg2d: Sum(rhs),rhsMax =   5.20066315878864E-06  5.02865063251561E-02
 cg2d: Sum(rhs),rhsMax =   5.23512840638549E-06  5.03501937029007E-02
 cg2d: Sum(rhs),rhsMax =   5.26977451669255E-06  5.04138871772901E-02
 cg2d: Sum(rhs),rhsMax =   5.30460255589865E-06  5.04775866991574E-02
 cg2d: Sum(rhs),rhsMax =   5.33961324868104E-06  5.05412922193155E-02
 cg2d: Sum(rhs),rhsMax =   5.37480753007302E-06  5.06050036885557E-02
 cg2d: Sum(rhs),rhsMax =   5.41018639718324E-06  5.06687210576490E-02
 cg2d: Sum(rhs),rhsMax =   5.44575079225798E-06  5.07324442773455E-02
 cg2d: Sum(rhs),rhsMax =   5.48150152408083E-06  5.07961732983742E-02
 cg2d: Sum(rhs),rhsMax =   5.51743948564234E-06  5.08599080714429E-02
 cg2d: Sum(rhs),rhsMax =   5.55356567526200E-06  5.09236485472414E-02
 cg2d: Sum(rhs),rhsMax =   5.58988075676295E-06  5.09873946764367E-02
 cg2d: Sum(rhs),rhsMax =   5.62638590913267E-06  5.10511464096776E-02
 cg2d: Sum(rhs),rhsMax =   5.66308183067715E-06  5.11149036975912E-02
 cg2d: Sum(rhs),rhsMax =   5.69996943085987E-06  5.11786664907864E-02
 cg2d: Sum(rhs),rhsMax =   5.73704969066696E-06  5.12424347398514E-02
 cg2d: Sum(rhs),rhsMax =   5.77432313784293E-06  5.13062083953548E-02
 cg2d: Sum(rhs),rhsMax =   5.81179100803825E-06  5.13699874078459E-02
 cg2d: Sum(rhs),rhsMax =   5.84945410972426E-06  5.14337717278558E-02
 cg2d: Sum(rhs),rhsMax =   5.88731286200322E-06  5.14975613058948E-02
 cg2d: Sum(rhs),rhsMax =   5.92536880122951E-06  5.15613560924543E-02
 cg2d: Sum(rhs),rhsMax =   5.96362226758934E-06  5.16251560380087E-02
 cg2d: Sum(rhs),rhsMax =   6.00207428384791E-06  5.16889610930102E-02
 cg2d: Sum(rhs),rhsMax =   6.04072547154971E-06  5.17527712078965E-02
 cg2d: Sum(rhs),rhsMax =   6.07957682357413E-06  5.18165863330834E-02
 cg2d: Sum(rhs),rhsMax =   6.11862896413018E-06  5.18804064189702E-02
 cg2d: Sum(rhs),rhsMax =   6.15788268008496E-06  5.19442314159375E-02
 cg2d: Sum(rhs),rhsMax =   6.19733909229883E-06  5.20080612743474E-02
 cg2d: Sum(rhs),rhsMax =   6.23699851450693E-06  5.20718959445435E-02
 cg2d: Sum(rhs),rhsMax =   6.27686200449160E-06  5.21357353768541E-02
 cg2d: Sum(rhs),rhsMax =   6.31693015076124E-06  5.21995795215863E-02
 cg2d: Sum(rhs),rhsMax =   6.35720386471528E-06  5.22634283290322E-02
 cg2d: Sum(rhs),rhsMax =   6.39768356939380E-06  5.23272817494663E-02
 cg2d: Sum(rhs),rhsMax =   6.43837012711916E-06  5.23911397331443E-02
 cg2d: Sum(rhs),rhsMax =   6.47926425596107E-06  5.24550022303058E-02
(PID.TID 0000.0001)      cg2d_init_res =   8.31390301941668E-03
(PID.TID 0000.0001)      cg2d_iters(min,last) =      -1      83
(PID.TID 0000.0001)      cg2d_last_res =   9.83213375463319E-08
(PID.TID 0000.0001) // =======================================================
(PID.TID 0000.0001) // Begin MONITOR dynamic field statistics
(PID.TID 0000.0001) // =======================================================
(PID.TID 0000.0001) %MON time_tsnumber                =                   936
(PID.TID 0000.0001) %MON time_secondsf                =   1.1232000000000E+06
(PID.TID 0000.0001) %MON dynstat_eta_max              =   3.0725944169513E-02
(PID.TID 0000.0001) %MON dynstat_eta_min              =  -2.0721623686812E-02
(PID.TID 0000.0001) %MON dynstat_eta_mean             =  -1.7122113934506E-09
(PID.TID 0000.0001) %MON dynstat_eta_sd               =   1.4629880510981E-02
(PID.TID 0000.0001) %MON dynstat_eta_del2             =   3.6018262379787E-06
(PID.TID 0000.0001) %MON dynstat_uvel_max             =   1.2347675910596E-02
(PID.TID 0000.0001) %MON dynstat_uvel_min             =  -1.2239283469617E-02
(PID.TID 0000.0001) %MON dynstat_uvel_mean            =  -5.5822375961884E-07
(PID.TID 0000.0001) %MON dynstat_uvel_sd              =   5.8933104751853E-03
(PID.TID 0000.0001) %MON dynstat_uvel_del2            =   7.6375549592514E-06
(PID.TID 0000.0001) %MON dynstat_vvel_max             =   2.9117209824944E-02
(PID.TID 0000.0001) %MON dynstat_vvel_min             =  -7.0222091377070E-03
(PID.TID 0000.0001) %MON dynstat_vvel_mean            =  -1.1291966754316E-08
(PID.TID 0000.0001) %MON dynstat_vvel_sd              =   7.0324254738751E-03
(PID.TID 0000.0001) %MON dynstat_vvel_del2            =   1.6174860060054E-05
(PID.TID 0000.0001) %MON dynstat_wvel_max             =   3.1630897328141E-08
(PID.TID 0000.0001) %MON dynstat_wvel_min             =  -1.2215739202511E-08
(PID.TID 0000.0001) %MON dynstat_wvel_mean            =  -3.0488232975282E-22
(PID.TID 0000.0001) %MON dynstat_wvel_sd              =   1.2255459346071E-08
(PID.TID 0000.0001) %MON dynstat_wvel_del2            =   4.7393153238682E-12
(PID.TID 0000.0001) %MON dynstat_theta_max            =   2.0000000000000E+01
(PID.TID 0000.0001) %MON dynstat_theta_min            =   2.0000000000000E+01
(PID.TID 0000.0001) %MON dynstat_theta_mean           =   2.0000000000000E+01
(PID.TID 0000.0001) %MON dynstat_theta_sd             =   0.0000000000000E+00
(PID.TID 0000.0001) %MON dynstat_theta_del2           =   0.0000000000000E+00
(PID.TID 0000.0001) %MON dynstat_salt_max             =   3.0000000000000E+01
(PID.TID 0000.0001) %MON dynstat_salt_min             =   3.0000000000000E+01
(PID.TID 0000.0001) %MON dynstat_salt_mean            =   3.0000000000000E+01
(PID.TID 0000.0001) %MON dynstat_salt_sd              =   0.0000000000000E+00
(PID.TID 0000.0001) %MON dynstat_salt_del2            =   0.0000000000000E+00
(PID.TID 0000.0001) %MON trAdv_CFL_u_max              =   7.4019036165807E-04
(PID.TID 0000.0001) %MON trAdv_CFL_v_max              =   1.7447490743117E-03
(PID.TID 0000.0001) %MON trAdv_CFL_w_max              =   7.5906536929077E-09
(PID.TID 0000.0001) %MON advcfl_uvel_max              =   7.4086055463578E-04
(PID.TID 0000.0001) %MON advcfl_vvel_max              =   1.7470325894966E-03
(PID.TID 0000.0001) %MON advcfl_wvel_max              =   1.5182830717508E-08
(PID.TID 0000.0001) %MON advcfl_W_hf_max              =   0.0000000000000E+00
(PID.TID 0000.0001) %MON pe_b_mean                    =   2.0996676909403E-07
(PID.TID 0000.0001) %MON ke_max                       =   4.2346679630322E-04
(PID.TID 0000.0001) %MON ke_mean                      =   4.1391507384520E-05
(PID.TID 0000.0001) %MON ke_vol                       =   7.2000000000000E+15
(PID.TID 0000.0001) %MON vort_r_min                   =  -1.7472727442183E-07
(PID.TID 0000.0001) %MON vort_r_max                   =   9.7723873606934E-07
(PID.TID 0000.0001) %MON vort_a_mean                  =   1.0600000000000E-04
(PID.TID 0000.0001) %MON vort_a_sd                    =   3.5197875987937E-06
(PID.TID 0000.0001) %MON vort_p_mean                  =   1.1130000000000E-04
(PID.TID 0000.0001) %MON vort_p_sd                    =   4.1066997474355E-05
(PID.TID 0000.0001) %MON surfExpan_theta_mean         =  -6.0904565341641E-21
(PID.TID 0000.0001) %MON surfExpan_salt_mean          =  -9.1397901592750E-21
(PID.TID 0000.0001) // =======================================================
(PID.TID 0000.0001) // End MONITOR dynamic field statistics
(PID.TID 0000.0001) // =======================================================
 cg2d: Sum(rhs),rhsMax =   6.52036651326363E-06  5.25188691911730E-02
 cg2d: Sum(rhs),rhsMax =   6.56167780187407E-06  5.25827405659517E-02
 cg2d: Sum(rhs),rhsMax =   6.60319848443981E-06  5.26466163048300E-02
 cg2d: Sum(rhs),rhsMax =   6.64492935521788E-06  5.27104963579809E-02
 cg2d: Sum(rhs),rhsMax =   6.68687105360999E-06  5.27743806755586E-02
 cg2d: Sum(rhs),rhsMax =   6.72902419575697E-06  5.28382692077034E-02
 cg2d: Sum(rhs),rhsMax =   6.77138928160612E-06  5.29021619045371E-02
 cg2d: Sum(rhs),rhsMax =   6.81396688907883E-06  5.29660587161673E-02
 cg2d: Sum(rhs),rhsMax =   6.85675751224517E-06  5.30299595926839E-02
 cg2d: Sum(rhs),rhsMax =   6.89976189014591E-06  5.30938644841630E-02
 cg2d: Sum(rhs),rhsMax =   6.94298035454517E-06  5.31577733406625E-02
 cg2d: Sum(rhs),rhsMax =   6.98641342389110E-06  5.32216861122271E-02
 cg2d: Sum(rhs),rhsMax =   7.03006160996354E-06  5.32856027488836E-02
 cg2d: Sum(rhs),rhsMax =   7.07392522564416E-06  5.33495232006464E-02
 cg2d: Sum(rhs),rhsMax =   7.11800486565863E-06  5.34134474175122E-02
 cg2d: Sum(rhs),rhsMax =   7.16230092422977E-06  5.34773753494631E-02
 cg2d: Sum(rhs),rhsMax =   7.20681374607665E-06  5.35413069464673E-02
 cg2d: Sum(rhs),rhsMax =   7.25154376209590E-06  5.36052421584774E-02
 cg2d: Sum(rhs),rhsMax =   7.29649125373599E-06  5.36691809354324E-02
 cg2d: Sum(rhs),rhsMax =   7.33076649429669E-06  5.37331232086680E-02
 cg2d: Sum(rhs),rhsMax =   7.36517432369486E-06  5.37970689534487E-02
 cg2d: Sum(rhs),rhsMax =   7.39971449309484E-06  5.38610181232327E-02
 cg2d: Sum(rhs),rhsMax =   7.43439130702732E-06  5.39249706594560E-02
 cg2d: Sum(rhs),rhsMax =   7.46920562419082E-06  5.39889265103239E-02
 cg2d: Sum(rhs),rhsMax =   7.50415618154358E-06  5.40528856249172E-02
 cg2d: Sum(rhs),rhsMax =   7.53924009129839E-06  5.41168479530306E-02
 cg2d: Sum(rhs),rhsMax =   7.57445474790057E-06  5.41808134447401E-02
 cg2d: Sum(rhs),rhsMax =   7.60979784825318E-06  5.42447820501114E-02
 cg2d: Sum(rhs),rhsMax =   7.64526736827566E-06  5.43087537190988E-02
 cg2d: Sum(rhs),rhsMax =   7.68086182944584E-06  5.43727284015376E-02
 cg2d: Sum(rhs),rhsMax =   7.71657966548885E-06  5.44367060471698E-02
 cg2d: Sum(rhs),rhsMax =   7.75241932885092E-06  5.45006866056981E-02
 cg2d: Sum(rhs),rhsMax =   7.78837841399101E-06  5.45646700268247E-02
 cg2d: Sum(rhs),rhsMax =   7.82445500604155E-06  5.46286562602662E-02
 cg2d: Sum(rhs),rhsMax =   7.86064699831619E-06  5.46926452557493E-02
 cg2d: Sum(rhs),rhsMax =   7.89695200337226E-06  5.47566369629970E-02
 cg2d: Sum(rhs),rhsMax =   7.93336783423172E-06  5.48206313317170E-02
 cg2d: Sum(rhs),rhsMax =   7.96989203280703E-06  5.48846283115964E-02
 cg2d: Sum(rhs),rhsMax =   8.00652228358928E-06  5.49486278523087E-02
 cg2d: Sum(rhs),rhsMax =   8.04325611387935E-06  5.50126299035088E-02
 cg2d: Sum(rhs),rhsMax =   8.08009099420234E-06  5.50766344148427E-02
 cg2d: Sum(rhs),rhsMax =   8.11702438683996E-06  5.51406413359461E-02
 cg2d: Sum(rhs),rhsMax =   8.15405340495214E-06  5.52046506164433E-02
 cg2d: Sum(rhs),rhsMax =   8.19117582353569E-06  5.52686622059497E-02
 cg2d: Sum(rhs),rhsMax =   8.22838822480028E-06  5.53326760540682E-02
 cg2d: Sum(rhs),rhsMax =   8.26568850062839E-06  5.53966921103901E-02
 cg2d: Sum(rhs),rhsMax =   8.30307307541321E-06  5.54607103244953E-02
 cg2d: Sum(rhs),rhsMax =   8.34053924163997E-06  5.55247306459525E-02
 cg2d: Sum(rhs),rhsMax =   8.37808391868262E-06  5.55887530243210E-02
 cg2d: Sum(rhs),rhsMax =   8.41570418556696E-06  5.56527774091461E-02
 cg2d: Sum(rhs),rhsMax =   8.45339703951266E-06  5.57168037499676E-02
 cg2d: Sum(rhs),rhsMax =   8.49115894707014E-06  5.57808319963103E-02
 cg2d: Sum(rhs),rhsMax =   8.52898676802390E-06  5.58448620976924E-02
 cg2d: Sum(rhs),rhsMax =   8.56687740165459E-06  5.59088940036187E-02
 cg2d: Sum(rhs),rhsMax =   8.60482742097955E-06  5.59729276635868E-02
 cg2d: Sum(rhs),rhsMax =   8.64283321636364E-06  5.60369630270822E-02
 cg2d: Sum(rhs),rhsMax =   8.68089198263408E-06  5.61010000435824E-02
 cg2d: Sum(rhs),rhsMax =   8.71899968197566E-06  5.61650386625541E-02
 cg2d: Sum(rhs),rhsMax =   8.75715316525985E-06  5.62290788334533E-02
 cg2d: Sum(rhs),rhsMax =   8.79534907480793E-06  5.62931205057309E-02
 cg2d: Sum(rhs),rhsMax =   8.92378285795997E-06  5.63571636014048E-02
 cg2d: Sum(rhs),rhsMax =   9.05289052721171E-06  5.64212081746632E-02
 cg2d: Sum(rhs),rhsMax =   9.18256046071597E-06  5.64852540642994E-02
 cg2d: Sum(rhs),rhsMax =   9.31267464549142E-06  5.65493012336897E-02
 cg2d: Sum(rhs),rhsMax =   9.44317472827833E-06  5.66133496474601E-02
 cg2d: Sum(rhs),rhsMax =   9.59015148697603E-06  5.66773993387596E-02
 cg2d: Sum(rhs),rhsMax =   9.73753847332594E-06  5.67414501046439E-02
 cg2d: Sum(rhs),rhsMax =   9.88536283683637E-06  5.68055019741448E-02
 cg2d: Sum(rhs),rhsMax =   1.00336336840839E-05  5.68695548876256E-02
 cg2d: Sum(rhs),rhsMax =   1.01823526078657E-05  5.69336087949895E-02
 cg2d: Sum(rhs),rhsMax =   1.03315208227726E-05  5.69976636464643E-02
 cg2d: Sum(rhs),rhsMax =   1.04811434294815E-05  5.70617193918631E-02
(PID.TID 0000.0001)      cg2d_init_res =   7.69263371648099E-03
(PID.TID 0000.0001)      cg2d_iters(min,last) =      -1      79
(PID.TID 0000.0001)      cg2d_last_res =   9.75647634279782E-08
(PID.TID 0000.0001) // =======================================================
(PID.TID 0000.0001) // Begin MONITOR dynamic field statistics
(PID.TID 0000.0001) // =======================================================
(PID.TID 0000.0001) %MON time_tsnumber                =                  1008
(PID.TID 0000.0001) %MON time_secondsf                =   1.2096000000000E+06
(PID.TID 0000.0001) %MON dynstat_eta_max              =   3.2998813165722E-02
(PID.TID 0000.0001) %MON dynstat_eta_min              =  -2.1602057745485E-02
(PID.TID 0000.0001) %MON dynstat_eta_mean             =  -3.0365862525802E-09
(PID.TID 0000.0001) %MON dynstat_eta_sd               =   1.5496661010520E-02
(PID.TID 0000.0001) %MON dynstat_eta_del2             =   3.9912394170031E-06
(PID.TID 0000.0001) %MON dynstat_uvel_max             =   1.3151226858028E-02
(PID.TID 0000.0001) %MON dynstat_uvel_min             =  -1.3000781161400E-02
(PID.TID 0000.0001) %MON dynstat_uvel_mean            =  -5.6264709159353E-07
(PID.TID 0000.0001) %MON dynstat_uvel_sd              =   6.1871883181816E-03
(PID.TID 0000.0001) %MON dynstat_uvel_del2            =   8.0088912373175E-06
(PID.TID 0000.0001) %MON dynstat_vvel_max             =   3.1871004156243E-02
(PID.TID 0000.0001) %MON dynstat_vvel_min             =  -7.0136619629443E-03
(PID.TID 0000.0001) %MON dynstat_vvel_mean            =  -8.1640728675549E-09
(PID.TID 0000.0001) %MON dynstat_vvel_sd              =   7.5531336512908E-03
(PID.TID 0000.0001) %MON dynstat_vvel_del2            =   1.7958152497656E-05
(PID.TID 0000.0001) %MON dynstat_wvel_max             =   3.1727740968927E-08
(PID.TID 0000.0001) %MON dynstat_wvel_min             =  -1.1867922134406E-08
(PID.TID 0000.0001) %MON dynstat_wvel_mean            =   4.6170397480536E-22
(PID.TID 0000.0001) %MON dynstat_wvel_sd              =   1.1951381316855E-08
(PID.TID 0000.0001) %MON dynstat_wvel_del2            =   4.8954047799730E-12
(PID.TID 0000.0001) %MON dynstat_theta_max            =   2.0000000000000E+01
(PID.TID 0000.0001) %MON dynstat_theta_min            =   2.0000000000000E+01
(PID.TID 0000.0001) %MON dynstat_theta_mean           =   2.0000000000000E+01
(PID.TID 0000.0001) %MON dynstat_theta_sd             =   0.0000000000000E+00
(PID.TID 0000.0001) %MON dynstat_theta_del2           =   0.0000000000000E+00
(PID.TID 0000.0001) %MON dynstat_salt_max             =   3.0000000000000E+01
(PID.TID 0000.0001) %MON dynstat_salt_min             =   3.0000000000000E+01
(PID.TID 0000.0001) %MON dynstat_salt_mean            =   3.0000000000000E+01
(PID.TID 0000.0001) %MON dynstat_salt_sd              =   0.0000000000000E+00
(PID.TID 0000.0001) %MON dynstat_salt_del2            =   0.0000000000000E+00
(PID.TID 0000.0001) %MON trAdv_CFL_u_max              =   7.8842123036587E-04
(PID.TID 0000.0001) %MON trAdv_CFL_v_max              =   1.9099560417338E-03
(PID.TID 0000.0001) %MON trAdv_CFL_w_max              =   7.6147716381820E-09
(PID.TID 0000.0001) %MON advcfl_uvel_max              =   7.8907361148171E-04
(PID.TID 0000.0001) %MON advcfl_vvel_max              =   1.9122602493746E-03
(PID.TID 0000.0001) %MON advcfl_wvel_max              =   1.5229315665085E-08
(PID.TID 0000.0001) %MON advcfl_W_hf_max              =   0.0000000000000E+00
(PID.TID 0000.0001) %MON pe_b_mean                    =   2.3558371892794E-07
(PID.TID 0000.0001) %MON ke_max                       =   5.0738733811047E-04
(PID.TID 0000.0001) %MON ke_mean                      =   4.6871137714808E-05
(PID.TID 0000.0001) %MON ke_vol                       =   7.2000000000000E+15
(PID.TID 0000.0001) %MON vort_r_min                   =  -1.9856826030900E-07
(PID.TID 0000.0001) %MON vort_r_max                   =   1.0552758158114E-06
(PID.TID 0000.0001) %MON vort_a_mean                  =   1.0600000000000E-04
(PID.TID 0000.0001) %MON vort_a_sd                    =   3.5201215418825E-06
(PID.TID 0000.0001) %MON vort_p_mean                  =   1.1130000000000E-04
(PID.TID 0000.0001) %MON vort_p_sd                    =   4.1072368597099E-05
(PID.TID 0000.0001) %MON surfExpan_theta_mean         =   9.2585100080416E-21
(PID.TID 0000.0001) %MON surfExpan_salt_mean          =   1.3883037929140E-20
(PID.TID 0000.0001) // =======================================================
(PID.TID 0000.0001) // End MONITOR dynamic field statistics
(PID.TID 0000.0001) // =======================================================
 cg2d: Sum(rhs),rhsMax =   1.06312297595643E-05  5.71257759807784E-02
 cg2d: Sum(rhs),rhsMax =   1.07817918221856E-05  5.71898333626224E-02
 cg2d: Sum(rhs),rhsMax =   1.09328416298612E-05  5.72538914866607E-02
 cg2d: Sum(rhs),rhsMax =   1.10843907786436E-05  5.73179503020996E-02
 cg2d: Sum(rhs),rhsMax =   1.12364491820817E-05  5.73820097581564E-02
 cg2d: Sum(rhs),rhsMax =   1.13890268528746E-05  5.74460698041004E-02
 cg2d: Sum(rhs),rhsMax =   1.15421336063706E-05  5.75101303892387E-02
 cg2d: Sum(rhs),rhsMax =   1.16957793885875E-05  5.75741914628893E-02
 cg2d: Sum(rhs),rhsMax =   1.18499743270526E-05  5.76382529743549E-02
 cg2d: Sum(rhs),rhsMax =   1.20047294011414E-05  5.77023148729167E-02
 cg2d: Sum(rhs),rhsMax =   1.21600550587690E-05  5.77663771078391E-02
 cg2d: Sum(rhs),rhsMax =   1.23159622532273E-05  5.78304396283739E-02
 cg2d: Sum(rhs),rhsMax =   1.24724614491666E-05  5.78945023837693E-02
 cg2d: Sum(rhs),rhsMax =   1.26295634645546E-05  5.79585653232721E-02
 cg2d: Sum(rhs),rhsMax =   1.27872791115084E-05  5.80226283961240E-02
 cg2d: Sum(rhs),rhsMax =   1.29456196344725E-05  5.80866915515661E-02
 cg2d: Sum(rhs),rhsMax =   1.31045953431740E-05  5.81507547388289E-02
 cg2d: Sum(rhs),rhsMax =   1.32642178146299E-05  5.82148179071396E-02
 cg2d: Sum(rhs),rhsMax =   1.34244977715199E-05  5.82788810057179E-02
 cg2d: Sum(rhs),rhsMax =   1.35854467301962E-05  5.83429439837764E-02
 cg2d: Sum(rhs),rhsMax =   1.37470758347930E-05  5.84070067905245E-02
 cg2d: Sum(rhs),rhsMax =   1.39093962400558E-05  5.84710693751648E-02
 cg2d: Sum(rhs),rhsMax =   1.40724191758992E-05  5.85351316868971E-02
 cg2d: Sum(rhs),rhsMax =   1.42361563911248E-05  5.85991936749142E-02
 cg2d: Sum(rhs),rhsMax =   1.44006189871804E-05  5.86632552884075E-02
 cg2d: Sum(rhs),rhsMax =   1.45658185992641E-05  5.87273164765599E-02
 cg2d: Sum(rhs),rhsMax =   1.47317668977454E-05  5.87913771885534E-02
 cg2d: Sum(rhs),rhsMax =   1.48984753413749E-05  5.88554373735617E-02
 cg2d: Sum(rhs),rhsMax =   1.50659555853364E-05  5.89194969807584E-02
 cg2d: Sum(rhs),rhsMax =   1.52342196614395E-05  5.89835559593099E-02
 cg2d: Sum(rhs),rhsMax =   1.54032788061195E-05  5.90476142583794E-02
 cg2d: Sum(rhs),rhsMax =   1.55731454578086E-05  5.91116718271266E-02
 cg2d: Sum(rhs),rhsMax =   1.57438308833208E-05  5.91757286147069E-02
 cg2d: Sum(rhs),rhsMax =   1.59153474626542E-05  5.92397845702739E-02
 cg2d: Sum(rhs),rhsMax =   1.60877068093694E-05  5.93038396429742E-02
 cg2d: Sum(rhs),rhsMax =   1.62609211722033E-05  5.93678937819538E-02
 cg2d: Sum(rhs),rhsMax =   1.64350025613127E-05  5.94319469363550E-02
 cg2d: Sum(rhs),rhsMax =   1.66099626228156E-05  5.94959990553163E-02
 cg2d: Sum(rhs),rhsMax =   1.67858138839898E-05  5.95600500879730E-02
 cg2d: Sum(rhs),rhsMax =   1.69625685698081E-05  5.96240999834586E-02
 cg2d: Sum(rhs),rhsMax =   1.71402384430090E-05  5.96881486909030E-02
 cg2d: Sum(rhs),rhsMax =   1.73188360901820E-05  5.97521961594335E-02
 cg2d: Sum(rhs),rhsMax =   1.74983736795416E-05  5.98162423381755E-02
 cg2d: Sum(rhs),rhsMax =   1.76788636266322E-05  5.98802871762510E-02
 cg2d: Sum(rhs),rhsMax =   1.78603181093806E-05  5.99443306227795E-02
 cg2d: Sum(rhs),rhsMax =   1.80427494232919E-05  6.00083726268803E-02
 cg2d: Sum(rhs),rhsMax =   1.82261701708250E-05  6.00724131376681E-02
 cg2d: Sum(rhs),rhsMax =   1.84105926610573E-05  6.01364521042577E-02
 cg2d: Sum(rhs),rhsMax =   1.85960291299945E-05  6.02004894757610E-02
 cg2d: Sum(rhs),rhsMax =   1.87824923332369E-05  6.02645252012892E-02
 cg2d: Sum(rhs),rhsMax =   1.89699945423744E-05  6.03285592299502E-02
 cg2d: Sum(rhs),rhsMax =   1.91585481256265E-05  6.03925915108525E-02
 cg2d: Sum(rhs),rhsMax =   1.93481660803463E-05  6.04566219931013E-02
 cg2d: Sum(rhs),rhsMax =   1.95388604842823E-05  6.05206506258024E-02
 cg2d: Sum(rhs),rhsMax =   1.97306438633939E-05  6.05846773580596E-02
 cg2d: Sum(rhs),rhsMax =   1.99235293048602E-05  6.06487021389758E-02
 cg2d: Sum(rhs),rhsMax =   2.01175288997886E-05  6.07127249176520E-02
 cg2d: Sum(rhs),rhsMax =   2.03126557472375E-05  6.07767456431919E-02
 cg2d: Sum(rhs),rhsMax =   2.05089219114506E-05  6.08407642646948E-02
 cg2d: Sum(rhs),rhsMax =   2.07063402480178E-05  6.09047807312602E-02
 cg2d: Sum(rhs),rhsMax =   2.09049233131729E-05  6.09687949919901E-02
 cg2d: Sum(rhs),rhsMax =   2.11046839941921E-05  6.10328069959835E-02
 cg2d: Sum(rhs),rhsMax =   2.13056346281028E-05  6.10968166923395E-02
 cg2d: Sum(rhs),rhsMax =   2.15077882379944E-05  6.11608240301579E-02
 cg2d: Sum(rhs),rhsMax =   2.17111571375710E-05  6.12248289585385E-02
 cg2d: Sum(rhs),rhsMax =   2.19157539814250E-05  6.12888314265823E-02
 cg2d: Sum(rhs),rhsMax =   2.21215918052471E-05  6.13528313833880E-02
 cg2d: Sum(rhs),rhsMax =   2.23286830722935E-05  6.14168287780575E-02
 cg2d: Sum(rhs),rhsMax =   2.25370402358212E-05  6.14808235596918E-02
 cg2d: Sum(rhs),rhsMax =   2.27466762560170E-05  6.15448156773938E-02
 cg2d: Sum(rhs),rhsMax =   2.29576037153699E-05  6.16088050802649E-02
 cg2d: Sum(rhs),rhsMax =   2.31698351798783E-05  6.16727917174113E-02
(PID.TID 0000.0001)      cg2d_init_res =   7.14563348866148E-03
(PID.TID 0000.0001)      cg2d_iters(min,last) =      -1      79
(PID.TID 0000.0001)      cg2d_last_res =   9.51423953939080E-08
(PID.TID 0000.0001) // =======================================================
(PID.TID 0000.0001) // Begin MONITOR dynamic field statistics
(PID.TID 0000.0001) // =======================================================
(PID.TID 0000.0001) %MON time_tsnumber                =                  1080
(PID.TID 0000.0001) %MON time_secondsf                =   1.2960000000000E+06
(PID.TID 0000.0001) %MON dynstat_eta_max              =   3.5275070743593E-02
(PID.TID 0000.0001) %MON dynstat_eta_min              =  -2.2370903900776E-02
(PID.TID 0000.0001) %MON dynstat_eta_mean             =  -7.2180733863131E-09
(PID.TID 0000.0001) %MON dynstat_eta_sd               =   1.6311107491810E-02
(PID.TID 0000.0001) %MON dynstat_eta_del2             =   4.3915791812546E-06
(PID.TID 0000.0001) %MON dynstat_uvel_max             =   1.3920653906376E-02
(PID.TID 0000.0001) %MON dynstat_uvel_min             =  -1.3716277315588E-02
(PID.TID 0000.0001) %MON dynstat_uvel_mean            =  -5.6098113611207E-07
(PID.TID 0000.0001) %MON dynstat_uvel_sd              =   6.4531660214281E-03
(PID.TID 0000.0001) %MON dynstat_uvel_del2            =   8.3235699308782E-06
(PID.TID 0000.0001) %MON dynstat_vvel_max             =   3.4643591277387E-02
(PID.TID 0000.0001) %MON dynstat_vvel_min             =  -7.1157911400998E-03
(PID.TID 0000.0001) %MON dynstat_vvel_mean            =  -4.9333099666255E-09
(PID.TID 0000.0001) %MON dynstat_vvel_sd              =   8.0671196824234E-03
(PID.TID 0000.0001) %MON dynstat_vvel_del2            =   1.9788548229043E-05
(PID.TID 0000.0001) %MON dynstat_wvel_max             =   3.1809865726391E-08
(PID.TID 0000.0001) %MON dynstat_wvel_min             =  -1.1688048114884E-08
(PID.TID 0000.0001) %MON dynstat_wvel_mean            =  -2.4366373610165E-21
(PID.TID 0000.0001) %MON dynstat_wvel_sd              =   1.1639034000542E-08
(PID.TID 0000.0001) %MON dynstat_wvel_del2            =   5.0422031691506E-12
(PID.TID 0000.0001) %MON dynstat_theta_max            =   2.0000000000000E+01
(PID.TID 0000.0001) %MON dynstat_theta_min            =   2.0000000000000E+01
(PID.TID 0000.0001) %MON dynstat_theta_mean           =   2.0000000000000E+01
(PID.TID 0000.0001) %MON dynstat_theta_sd             =   0.0000000000000E+00
(PID.TID 0000.0001) %MON dynstat_theta_del2           =   0.0000000000000E+00
(PID.TID 0000.0001) %MON dynstat_salt_max             =   3.0000000000000E+01
(PID.TID 0000.0001) %MON dynstat_salt_min             =   3.0000000000000E+01
(PID.TID 0000.0001) %MON dynstat_salt_mean            =   3.0000000000000E+01
(PID.TID 0000.0001) %MON dynstat_salt_sd              =   0.0000000000000E+00
(PID.TID 0000.0001) %MON dynstat_salt_del2            =   0.0000000000000E+00
(PID.TID 0000.0001) %MON trAdv_CFL_u_max              =   8.3460325229435E-04
(PID.TID 0000.0001) %MON trAdv_CFL_v_max              =   2.0763005198259E-03
(PID.TID 0000.0001) %MON trAdv_CFL_w_max              =   7.6343561681220E-09
(PID.TID 0000.0001) %MON advcfl_uvel_max              =   8.3523923438254E-04
(PID.TID 0000.0001) %MON advcfl_vvel_max              =   2.0786154766432E-03
(PID.TID 0000.0001) %MON advcfl_wvel_max              =   1.5268735548668E-08
(PID.TID 0000.0001) %MON advcfl_W_hf_max              =   0.0000000000000E+00
(PID.TID 0000.0001) %MON pe_b_mean                    =   2.6099723528487E-07
(PID.TID 0000.0001) %MON ke_max                       =   5.9955039747993E-04
(PID.TID 0000.0001) %MON ke_mean                      =   5.2471537892812E-05
(PID.TID 0000.0001) %MON ke_vol                       =   7.2000000000000E+15
(PID.TID 0000.0001) %MON vort_r_min                   =  -2.2380467976952E-07
(PID.TID 0000.0001) %MON vort_r_max                   =   1.1328345816428E-06
(PID.TID 0000.0001) %MON vort_a_mean                  =   1.0600000000000E-04
(PID.TID 0000.0001) %MON vort_a_sd                    =   3.5204838866629E-06
(PID.TID 0000.0001) %MON vort_p_mean                  =   1.1130000000000E-04
(PID.TID 0000.0001) %MON vort_p_sd                    =   4.1077403864285E-05
(PID.TID 0000.0001) %MON surfExpan_theta_mean         =  -4.8664598277052E-20
(PID.TID 0000.0001) %MON surfExpan_salt_mean          =  -7.2990581480149E-20
(PID.TID 0000.0001) // =======================================================
(PID.TID 0000.0001) // End MONITOR dynamic field statistics
(PID.TID 0000.0001) // =======================================================
 cg2d: Sum(rhs),rhsMax =   2.33833832043763E-05  6.17367755379363E-02
 cg2d: Sum(rhs),rhsMax =   2.35982605800242E-05  6.18007564909483E-02
 cg2d: Sum(rhs),rhsMax =   2.38144799576626E-05  6.18647345255518E-02
 cg2d: Sum(rhs),rhsMax =   2.40320540198739E-05  6.19287095908589E-02
 cg2d: Sum(rhs),rhsMax =   2.42509951417173E-05  6.19926816359779E-02
 cg2d: Sum(rhs),rhsMax =   2.44713161271677E-05  6.20566506100227E-02
 cg2d: Sum(rhs),rhsMax =   2.46930297886205E-05  6.21206164621059E-02
 cg2d: Sum(rhs),rhsMax =   2.49161484121817E-05  6.21845791413455E-02
 cg2d: Sum(rhs),rhsMax =   2.51406846107482E-05  6.22485385968572E-02
 cg2d: Sum(rhs),rhsMax =   2.53666508902017E-05  6.23124947777626E-02
 cg2d: Sum(rhs),rhsMax =   2.55940599715506E-05  6.23764476331842E-02
 cg2d: Sum(rhs),rhsMax =   2.58229241623647E-05  6.24403971122460E-02
 cg2d: Sum(rhs),rhsMax =   2.60532560662635E-05  6.25043431640769E-02
 cg2d: Sum(rhs),rhsMax =   2.62850684203380E-05  6.25682857378041E-02
 cg2d: Sum(rhs),rhsMax =   2.65183735272175E-05  6.26322247825634E-02
 cg2d: Sum(rhs),rhsMax =   2.67531836400953E-05  6.26961602474888E-02
 cg2d: Sum(rhs),rhsMax =   2.69895115183917E-05  6.27600920817190E-02
 cg2d: Sum(rhs),rhsMax =   2.72273692548345E-05  6.28240202343956E-02
 cg2d: Sum(rhs),rhsMax =   2.74667695639632E-05  6.28879446546634E-02
 cg2d: Sum(rhs),rhsMax =   2.75020613931063E-05  6.29518652620865E-02
 cg2d: Sum(rhs),rhsMax =   2.75378386121426E-05  6.30157820443191E-02
 cg2d: Sum(rhs),rhsMax =   2.75741340348516E-05  6.30796949467834E-02
 cg2d: Sum(rhs),rhsMax =   2.76109967712584E-05  6.31436039307797E-02
 cg2d: Sum(rhs),rhsMax =   2.76484557092897E-05  6.32075089376568E-02
 cg2d: Sum(rhs),rhsMax =   2.76865207824023E-05  6.32714099050364E-02
 cg2d: Sum(rhs),rhsMax =   2.77251922030687E-05  6.33353067768078E-02
 cg2d: Sum(rhs),rhsMax =   2.77644692242094E-05  6.33991995035427E-02
 cg2d: Sum(rhs),rhsMax =   2.78043546357229E-05  6.34630880383080E-02
 cg2d: Sum(rhs),rhsMax =   2.78448563422479E-05  6.35269723332676E-02
 cg2d: Sum(rhs),rhsMax =   2.78859847068266E-05  6.35908523386031E-02
 cg2d: Sum(rhs),rhsMax =   2.79277506493817E-05  6.36547280030201E-02
 cg2d: Sum(rhs),rhsMax =   2.79701637328246E-05  6.37185992747385E-02
 cg2d: Sum(rhs),rhsMax =   2.80132320645693E-05  6.37824661022249E-02
 cg2d: Sum(rhs),rhsMax =   2.80569631156431E-05  6.38463284344288E-02
 cg2d: Sum(rhs),rhsMax =   2.81013637025360E-05  6.39101862206709E-02
 cg2d: Sum(rhs),rhsMax =   2.81464411377354E-05  6.39740394104100E-02
 cg2d: Sum(rhs),rhsMax =   2.81922025228559E-05  6.40378879530600E-02
 cg2d: Sum(rhs),rhsMax =   2.82386557742542E-05  6.41017317979206E-02
 cg2d: Sum(rhs),rhsMax =   2.82858080378461E-05  6.41655708942023E-02
 cg2d: Sum(rhs),rhsMax =   2.83336669411952E-05  6.42294051910821E-02
 cg2d: Sum(rhs),rhsMax =   2.83822393270117E-05  6.42932346377544E-02
 cg2d: Sum(rhs),rhsMax =   2.84315323372739E-05  6.43570591834483E-02
 cg2d: Sum(rhs),rhsMax =   2.84815526239261E-05  6.44208787774244E-02
 cg2d: Sum(rhs),rhsMax =   2.85323069660753E-05  6.44846933689607E-02
 cg2d: Sum(rhs),rhsMax =   2.85838019598219E-05  6.45485029073395E-02
 cg2d: Sum(rhs),rhsMax =   2.86360443440600E-05  6.46123073418424E-02
 cg2d: Sum(rhs),rhsMax =   2.86890407196292E-05  6.46761066217521E-02
 cg2d: Sum(rhs),rhsMax =   2.87427976257224E-05  6.47399006963526E-02
 cg2d: Sum(rhs),rhsMax =   2.87973210600610E-05  6.48036895149343E-02
 cg2d: Sum(rhs),rhsMax =   2.88526177789853E-05  6.48674730268004E-02
 cg2d: Sum(rhs),rhsMax =   2.89086938030664E-05  6.49312511812561E-02
 cg2d: Sum(rhs),rhsMax =   2.89655552947569E-05  6.49950239276198E-02
 cg2d: Sum(rhs),rhsMax =   2.90232081663882E-05  6.50587912152161E-02
 cg2d: Sum(rhs),rhsMax =   2.90816586651175E-05  6.51225529933737E-02
 cg2d: Sum(rhs),rhsMax =   2.91409128517044E-05  6.51863092114310E-02
 cg2d: Sum(rhs),rhsMax =   2.92009764499505E-05  6.52500598187348E-02
 cg2d: Sum(rhs),rhsMax =   2.92618554693647E-05  6.53138047646362E-02
 cg2d: Sum(rhs),rhsMax =   2.93235554905385E-05  6.53775439984966E-02
 cg2d: Sum(rhs),rhsMax =   2.93860826257406E-05  6.54412774696844E-02
 cg2d: Sum(rhs),rhsMax =   2.94494421002531E-05  6.55050051275758E-02
 cg2d: Sum(rhs),rhsMax =   2.95136399699348E-05  6.55687269215562E-02
 cg2d: Sum(rhs),rhsMax =   2.95786817375906E-05  6.56324428010164E-02
 cg2d: Sum(rhs),rhsMax =   2.96445730064814E-05  6.56961527153599E-02
 cg2d: Sum(rhs),rhsMax =   2.97113194580607E-05  6.57598566139951E-02
 cg2d: Sum(rhs),rhsMax =   2.97789265985525E-05  6.58235544463393E-02
 cg2d: Sum(rhs),rhsMax =   2.98473999513459E-05  6.58872461618203E-02
 cg2d: Sum(rhs),rhsMax =   2.99167448051391E-05  6.59509317098730E-02
 cg2d: Sum(rhs),rhsMax =   2.99869667949749E-05  6.60146110399419E-02
 cg2d: Sum(rhs),rhsMax =   3.00580712981474E-05  6.60782841014805E-02
 cg2d: Sum(rhs),rhsMax =   3.01300635480554E-05  6.61419508439507E-02
 cg2d: Sum(rhs),rhsMax =   3.02029492808935E-05  6.62056112168240E-02
 cg2d: Sum(rhs),rhsMax =   3.02767336848968E-05  6.62692651695824E-02
(PID.TID 0000.0001)      cg2d_init_res =   6.65851730655570E-03
(PID.TID 0000.0001)      cg2d_iters(min,last) =      -1      84
(PID.TID 0000.0001)      cg2d_last_res =   7.56266875904227E-08
(PID.TID 0000.0001) // =======================================================
(PID.TID 0000.0001) // Begin MONITOR dynamic field statistics
(PID.TID 0000.0001) // =======================================================
(PID.TID 0000.0001) %MON time_tsnumber                =                  1152
(PID.TID 0000.0001) %MON time_secondsf                =   1.3824000000000E+06
(PID.TID 0000.0001) %MON dynstat_eta_max              =   3.7497649482653E-02
(PID.TID 0000.0001) %MON dynstat_eta_min              =  -2.3028575093383E-02
(PID.TID 0000.0001) %MON dynstat_eta_mean             =  -1.0066491157460E-08
(PID.TID 0000.0001) %MON dynstat_eta_sd               =   1.7070981630295E-02
(PID.TID 0000.0001) %MON dynstat_eta_del2             =   4.8018975461940E-06
(PID.TID 0000.0001) %MON dynstat_uvel_max             =   1.4655282175892E-02
(PID.TID 0000.0001) %MON dynstat_uvel_min             =  -1.4398293420527E-02
(PID.TID 0000.0001) %MON dynstat_uvel_mean            =  -5.5337483948445E-07
(PID.TID 0000.0001) %MON dynstat_uvel_sd              =   6.6910753536675E-03
(PID.TID 0000.0001) %MON dynstat_uvel_del2            =   8.5835224415844E-06
(PID.TID 0000.0001) %MON dynstat_vvel_max             =   3.7422992589821E-02
(PID.TID 0000.0001) %MON dynstat_vvel_min             =  -7.3343779729962E-03
(PID.TID 0000.0001) %MON dynstat_vvel_mean            =  -1.6353992280415E-09
(PID.TID 0000.0001) %MON dynstat_vvel_sd              =   8.5730418452246E-03
(PID.TID 0000.0001) %MON dynstat_vvel_del2            =   2.1659530337612E-05
(PID.TID 0000.0001) %MON dynstat_wvel_max             =   3.1716262593400E-08
(PID.TID 0000.0001) %MON dynstat_wvel_min             =  -1.1651317434444E-08
(PID.TID 0000.0001) %MON dynstat_wvel_mean            =  -4.2903138819383E-23
(PID.TID 0000.0001) %MON dynstat_wvel_sd              =   1.1321873046050E-08
(PID.TID 0000.0001) %MON dynstat_wvel_del2            =   5.1783777414248E-12
(PID.TID 0000.0001) %MON dynstat_theta_max            =   2.0000000000000E+01
(PID.TID 0000.0001) %MON dynstat_theta_min            =   2.0000000000000E+01
(PID.TID 0000.0001) %MON dynstat_theta_mean           =   2.0000000000000E+01
(PID.TID 0000.0001) %MON dynstat_theta_sd             =   0.0000000000000E+00
(PID.TID 0000.0001) %MON dynstat_theta_del2           =   0.0000000000000E+00
(PID.TID 0000.0001) %MON dynstat_salt_max             =   3.0000000000000E+01
(PID.TID 0000.0001) %MON dynstat_salt_min             =   3.0000000000000E+01
(PID.TID 0000.0001) %MON dynstat_salt_mean            =   3.0000000000000E+01
(PID.TID 0000.0001) %MON dynstat_salt_sd              =   0.0000000000000E+00
(PID.TID 0000.0001) %MON dynstat_salt_del2            =   0.0000000000000E+00
(PID.TID 0000.0001) %MON trAdv_CFL_u_max              =   8.7872854864482E-04
(PID.TID 0000.0001) %MON trAdv_CFL_v_max              =   2.2430638546332E-03
(PID.TID 0000.0001) %MON trAdv_CFL_w_max              =   7.6117833502125E-09
(PID.TID 0000.0001) %MON advcfl_uvel_max              =   8.7931693055350E-04
(PID.TID 0000.0001) %MON advcfl_vvel_max              =   2.2453795553892E-03
(PID.TID 0000.0001) %MON advcfl_wvel_max              =   1.5223806044832E-08
(PID.TID 0000.0001) %MON advcfl_W_hf_max              =   0.0000000000000E+00
(PID.TID 0000.0001) %MON pe_b_mean                    =   2.8588146395934E-07
(PID.TID 0000.0001) %MON ke_max                       =   6.9966857474882E-04
(PID.TID 0000.0001) %MON ke_mean                      =   5.8148205285872E-05
(PID.TID 0000.0001) %MON ke_vol                       =   7.2000000000000E+15
(PID.TID 0000.0001) %MON vort_r_min                   =  -2.5040342137294E-07
(PID.TID 0000.0001) %MON vort_r_max                   =   1.2096130830363E-06
(PID.TID 0000.0001) %MON vort_a_mean                  =   1.0600000000000E-04
(PID.TID 0000.0001) %MON vort_a_sd                    =   3.5208740874102E-06
(PID.TID 0000.0001) %MON vort_p_mean                  =   1.1130000000000E-04
(PID.TID 0000.0001) %MON vort_p_sd                    =   4.1082132409753E-05
(PID.TID 0000.0001) %MON surfExpan_theta_mean         =  -8.4736168699035E-22
(PID.TID 0000.0001) %MON surfExpan_salt_mean          =  -1.2708846320998E-21
(PID.TID 0000.0001) // =======================================================
(PID.TID 0000.0001) // End MONITOR dynamic field statistics
(PID.TID 0000.0001) // =======================================================
 cg2d: Sum(rhs),rhsMax =   3.03514221191414E-05  6.63329126517157E-02
 cg2d: Sum(rhs),rhsMax =   3.04270200085013E-05  6.63965536127237E-02
 cg2d: Sum(rhs),rhsMax =   3.05035323925548E-05  6.64601880021163E-02
 cg2d: Sum(rhs),rhsMax =   3.05809653299623E-05  6.65238157694127E-02
 cg2d: Sum(rhs),rhsMax =   3.06593234464855E-05  6.65874368641430E-02
 cg2d: Sum(rhs),rhsMax =   3.07386122151108E-05  6.66510512358450E-02
 cg2d: Sum(rhs),rhsMax =   3.08188371937034E-05  6.67146588340688E-02
 cg2d: Sum(rhs),rhsMax =   3.09000034677785E-05  6.67782596083747E-02
 cg2d: Sum(rhs),rhsMax =   3.09821167733780E-05  6.68418535083322E-02
 cg2d: Sum(rhs),rhsMax =   3.10651820974225E-05  6.69054404835213E-02
 cg2d: Sum(rhs),rhsMax =   3.11492049631414E-05  6.69690204835333E-02
 cg2d: Sum(rhs),rhsMax =   3.12341906782421E-05  6.70325934579713E-02
 cg2d: Sum(rhs),rhsMax =   3.13201446943030E-05  6.70961593564455E-02
 cg2d: Sum(rhs),rhsMax =   3.14070721628458E-05  6.71597181285800E-02
 cg2d: Sum(rhs),rhsMax =   3.14949787489707E-05  6.72232697240098E-02
 cg2d: Sum(rhs),rhsMax =   3.15838698410828E-05  6.72868140923801E-02
 cg2d: Sum(rhs),rhsMax =   3.16737505700864E-05  6.73503511833481E-02
 cg2d: Sum(rhs),rhsMax =   3.17646267267279E-05  6.74138809465807E-02
 cg2d: Sum(rhs),rhsMax =   3.18565034607317E-05  6.74774033317577E-02
 cg2d: Sum(rhs),rhsMax =   3.19493868228271E-05  6.75409182885707E-02
 cg2d: Sum(rhs),rhsMax =   3.20432817743459E-05  6.76044257667231E-02
 cg2d: Sum(rhs),rhsMax =   3.21381939665955E-05  6.76679257159282E-02
 cg2d: Sum(rhs),rhsMax =   3.22341293302157E-05  6.77314180859131E-02
 cg2d: Sum(rhs),rhsMax =   3.23310928642441E-05  6.77949028264159E-02
 cg2d: Sum(rhs),rhsMax =   3.24290908421173E-05  6.78583798871875E-02
 cg2d: Sum(rhs),rhsMax =   3.25281284322080E-05  6.79218492179908E-02
 cg2d: Sum(rhs),rhsMax =   3.26282113219372E-05  6.79853107686001E-02
 cg2d: Sum(rhs),rhsMax =   3.27293453652316E-05  6.80487644888050E-02
 cg2d: Sum(rhs),rhsMax =   3.28315363267127E-05  6.81122103284025E-02
 cg2d: Sum(rhs),rhsMax =   3.29347899611539E-05  6.81756482372085E-02
 cg2d: Sum(rhs),rhsMax =   3.30391120357907E-05  6.82390781650474E-02
 cg2d: Sum(rhs),rhsMax =   3.31445084563523E-05  6.83025000617567E-02
 cg2d: Sum(rhs),rhsMax =   3.32509850179824E-05  6.83659138771893E-02
 cg2d: Sum(rhs),rhsMax =   3.33585477972718E-05  6.84293195612096E-02
 cg2d: Sum(rhs),rhsMax =   3.34672025580265E-05  6.84927170636948E-02
 cg2d: Sum(rhs),rhsMax =   3.35769555427495E-05  6.85561063345362E-02
 cg2d: Sum(rhs),rhsMax =   3.36878126613316E-05  6.86194873236381E-02
 cg2d: Sum(rhs),rhsMax =   3.37997799398481E-05  6.86828599809195E-02
 cg2d: Sum(rhs),rhsMax =   3.39128635906821E-05  6.87462242563116E-02
 cg2d: Sum(rhs),rhsMax =   3.40270698151318E-05  6.88095800997601E-02
 cg2d: Sum(rhs),rhsMax =   3.41424048531276E-05  6.88729274612248E-02
 cg2d: Sum(rhs),rhsMax =   3.42588746689073E-05  6.89362662906778E-02
 cg2d: Sum(rhs),rhsMax =   3.43764859411545E-05  6.89995965381076E-02
 cg2d: Sum(rhs),rhsMax =   3.44952448125546E-05  6.90629181535154E-02
 cg2d: Sum(rhs),rhsMax =   3.46151578543615E-05  6.91262310869172E-02
 cg2d: Sum(rhs),rhsMax =   3.47362312688639E-05  6.91895352883449E-02
 cg2d: Sum(rhs),rhsMax =   3.48584719203539E-05  6.92528307078402E-02
 cg2d: Sum(rhs),rhsMax =   3.49818860053610E-05  6.93161172954653E-02
 cg2d: Sum(rhs),rhsMax =   3.51064802654125E-05  6.93793950012941E-02
 cg2d: Sum(rhs),rhsMax =   3.52322615276030E-05  6.94426637754145E-02
 cg2d: Sum(rhs),rhsMax =   3.53592359939123E-05  6.95059235679325E-02
 cg2d: Sum(rhs),rhsMax =   3.54874109769719E-05  6.95691743289649E-02
 cg2d: Sum(rhs),rhsMax =   3.56167929960322E-05  6.96324160086472E-02
 cg2d: Sum(rhs),rhsMax =   3.57473888891752E-05  6.96956485571289E-02
 cg2d: Sum(rhs),rhsMax =   3.58792057911731E-05  6.97588719245760E-02
 cg2d: Sum(rhs),rhsMax =   3.60122504109925E-05  6.98220860611673E-02
 cg2d: Sum(rhs),rhsMax =   3.61465302079391E-05  6.98852909170995E-02
 cg2d: Sum(rhs),rhsMax =   3.62820516874272E-05  6.99484864425836E-02
 cg2d: Sum(rhs),rhsMax =   3.64188224519623E-05  7.00116725878494E-02
 cg2d: Sum(rhs),rhsMax =   3.65568494670367E-05  7.00748493031375E-02
 cg2d: Sum(rhs),rhsMax =   3.66961401942860E-05  7.01380165387094E-02
 cg2d: Sum(rhs),rhsMax =   3.68367017043042E-05  7.02011742448401E-02
 cg2d: Sum(rhs),rhsMax =   3.69785414871052E-05  7.02643223718214E-02
 cg2d: Sum(rhs),rhsMax =   3.71216670073393E-05  7.03274608699619E-02
 cg2d: Sum(rhs),rhsMax =   3.72660857284098E-05  7.03905896895860E-02
 cg2d: Sum(rhs),rhsMax =   3.74118052193020E-05  7.04537087810336E-02
 cg2d: Sum(rhs),rhsMax =   3.75588331165150E-05  7.05168180946656E-02
 cg2d: Sum(rhs),rhsMax =   3.77071770872109E-05  7.05799175808538E-02
 cg2d: Sum(rhs),rhsMax =   3.78568447738821E-05  7.06430071899921E-02
 cg2d: Sum(rhs),rhsMax =   3.80078441444883E-05  7.07060868724870E-02
 cg2d: Sum(rhs),rhsMax =   3.81601829947016E-05  7.07691565787649E-02
 cg2d: Sum(rhs),rhsMax =   3.83138691370851E-05  7.08322162592690E-02
(PID.TID 0000.0001)      cg2d_init_res =   6.22060833460528E-03
(PID.TID 0000.0001)      cg2d_iters(min,last) =      -1      84
(PID.TID 0000.0001)      cg2d_last_res =   6.99208826197638E-08
(PID.TID 0000.0001) // =======================================================
(PID.TID 0000.0001) // Begin MONITOR dynamic field statistics
(PID.TID 0000.0001) // =======================================================
(PID.TID 0000.0001) %MON time_tsnumber                =                  1224
(PID.TID 0000.0001) %MON time_secondsf                =   1.4688000000000E+06
(PID.TID 0000.0001) %MON dynstat_eta_max              =   3.9650331315840E-02
(PID.TID 0000.0001) %MON dynstat_eta_min              =  -2.3576513278611E-02
(PID.TID 0000.0001) %MON dynstat_eta_mean             =  -1.3636318257391E-08
(PID.TID 0000.0001) %MON dynstat_eta_sd               =   1.7774331376311E-02
(PID.TID 0000.0001) %MON dynstat_eta_del2             =   5.2211891180796E-06
(PID.TID 0000.0001) %MON dynstat_uvel_max             =   1.5368211044369E-02
(PID.TID 0000.0001) %MON dynstat_uvel_min             =  -1.5030394845273E-02
(PID.TID 0000.0001) %MON dynstat_uvel_mean            =  -5.4004329694232E-07
(PID.TID 0000.0001) %MON dynstat_uvel_sd              =   6.9009752383296E-03
(PID.TID 0000.0001) %MON dynstat_uvel_del2            =   8.7911649254446E-06
(PID.TID 0000.0001) %MON dynstat_vvel_max             =   4.0197210074804E-02
(PID.TID 0000.0001) %MON dynstat_vvel_min             =  -7.6410410044798E-03
(PID.TID 0000.0001) %MON dynstat_vvel_mean            =   1.6923478161012E-09
(PID.TID 0000.0001) %MON dynstat_vvel_sd              =   9.0695099303263E-03
(PID.TID 0000.0001) %MON dynstat_vvel_del2            =   2.3563867532934E-05
(PID.TID 0000.0001) %MON dynstat_wvel_max             =   3.1628131411271E-08
(PID.TID 0000.0001) %MON dynstat_wvel_min             =  -1.1747567469720E-08
(PID.TID 0000.0001) %MON dynstat_wvel_mean            =  -1.1118939053429E-21
(PID.TID 0000.0001) %MON dynstat_wvel_sd              =   1.1003613748500E-08
(PID.TID 0000.0001) %MON dynstat_wvel_del2            =   5.3028076007704E-12
(PID.TID 0000.0001) %MON dynstat_theta_max            =   2.0000000000000E+01
(PID.TID 0000.0001) %MON dynstat_theta_min            =   2.0000000000000E+01
(PID.TID 0000.0001) %MON dynstat_theta_mean           =   2.0000000000000E+01
(PID.TID 0000.0001) %MON dynstat_theta_sd             =   0.0000000000000E+00
(PID.TID 0000.0001) %MON dynstat_theta_del2           =   0.0000000000000E+00
(PID.TID 0000.0001) %MON dynstat_salt_max             =   3.0000000000000E+01
(PID.TID 0000.0001) %MON dynstat_salt_min             =   3.0000000000000E+01
(PID.TID 0000.0001) %MON dynstat_salt_mean            =   3.0000000000000E+01
(PID.TID 0000.0001) %MON dynstat_salt_sd              =   0.0000000000000E+00
(PID.TID 0000.0001) %MON dynstat_salt_del2            =   0.0000000000000E+00
(PID.TID 0000.0001) %MON trAdv_CFL_u_max              =   9.2151837607317E-04
(PID.TID 0000.0001) %MON trAdv_CFL_v_max              =   2.4095261363627E-03
(PID.TID 0000.0001) %MON trAdv_CFL_w_max              =   7.5914470086806E-09
(PID.TID 0000.0001) %MON advcfl_uvel_max              =   9.2209266266214E-04
(PID.TID 0000.0001) %MON advcfl_vvel_max              =   2.4118326044882E-03
(PID.TID 0000.0001) %MON advcfl_wvel_max              =   1.5181503077410E-08
(PID.TID 0000.0001) %MON advcfl_W_hf_max              =   0.0000000000000E+00
(PID.TID 0000.0001) %MON pe_b_mean                    =   3.0992424561348E-07
(PID.TID 0000.0001) %MON ke_max                       =   8.0732159310372E-04
(PID.TID 0000.0001) %MON ke_mean                      =   6.3857406038088E-05
(PID.TID 0000.0001) %MON ke_vol                       =   7.2000000000000E+15
(PID.TID 0000.0001) %MON vort_r_min                   =  -2.7829910125625E-07
(PID.TID 0000.0001) %MON vort_r_max                   =   1.2853090828578E-06
(PID.TID 0000.0001) %MON vort_a_mean                  =   1.0600000000000E-04
(PID.TID 0000.0001) %MON vort_a_sd                    =   3.5212912086085E-06
(PID.TID 0000.0001) %MON vort_p_mean                  =   1.1130000000000E-04
(PID.TID 0000.0001) %MON vort_p_sd                    =   4.1086578712226E-05
(PID.TID 0000.0001) %MON surfExpan_theta_mean         =  -2.2184091600745E-20
(PID.TID 0000.0001) %MON surfExpan_salt_mean          =  -3.3274874214031E-20
(PID.TID 0000.0001) // =======================================================
(PID.TID 0000.0001) // End MONITOR dynamic field statistics
(PID.TID 0000.0001) // =======================================================
 cg2d: Sum(rhs),rhsMax =   3.84689107051691E-05  7.08952658644589E-02
 cg2d: Sum(rhs),rhsMax =   3.86253158314899E-05  7.09583053448128E-02
 cg2d: Sum(rhs),rhsMax =   3.87830922832458E-05  7.10213346508251E-02
 cg2d: Sum(rhs),rhsMax =   3.89422486309510E-05  7.10843537330092E-02
 cg2d: Sum(rhs),rhsMax =   3.91027927743488E-05  7.11473625418937E-02
 cg2d: Sum(rhs),rhsMax =   3.92647333695914E-05  7.12103610280289E-02
 cg2d: Sum(rhs),rhsMax =   3.94280786515828E-05  7.12733491419786E-02
 cg2d: Sum(rhs),rhsMax =   3.95928370543509E-05  7.13363268343299E-02
 cg2d: Sum(rhs),rhsMax =   3.97590170788595E-05  7.13992940556824E-02
 cg2d: Sum(rhs),rhsMax =   3.99266272195029E-05  7.14622507566575E-02
 cg2d: Sum(rhs),rhsMax =   4.00956761123158E-05  7.15251968878951E-02
 cg2d: Sum(rhs),rhsMax =   4.02661727233553E-05  7.15881324000516E-02
 cg2d: Sum(rhs),rhsMax =   4.04381254752555E-05  7.16510572438038E-02
 cg2d: Sum(rhs),rhsMax =   4.06115436207659E-05  7.17139713698442E-02
 cg2d: Sum(rhs),rhsMax =   4.07864356962422E-05  7.17768747288879E-02
 cg2d: Sum(rhs),rhsMax =   4.09628109064898E-05  7.18397672716667E-02
 cg2d: Sum(rhs),rhsMax =   4.11406777951571E-05  7.19026489489313E-02
 cg2d: Sum(rhs),rhsMax =   4.13200462405020E-05  7.19655197114541E-02
 cg2d: Sum(rhs),rhsMax =   4.15009248643169E-05  7.20283795100205E-02
 cg2d: Sum(rhs),rhsMax =   4.16833230080047E-05  7.20912282954426E-02
 cg2d: Sum(rhs),rhsMax =   4.18672501653512E-05  7.21540660185483E-02
 cg2d: Sum(rhs),rhsMax =   4.20527154271818E-05  7.22168926301840E-02
 cg2d: Sum(rhs),rhsMax =   4.22397283514116E-05  7.22797080812161E-02
 cg2d: Sum(rhs),rhsMax =   4.24282984640093E-05  7.23425123225340E-02
 cg2d: Sum(rhs),rhsMax =   4.26184353885788E-05  7.24053053050429E-02
 cg2d: Sum(rhs),rhsMax =   4.28101488379132E-05  7.24680869796696E-02
 cg2d: Sum(rhs),rhsMax =   4.30034481357939E-05  7.25308572973601E-02
 cg2d: Sum(rhs),rhsMax =   4.31983433435840E-05  7.25936162090826E-02
 cg2d: Sum(rhs),rhsMax =   4.33948442150646E-05  7.26563636658226E-02
 cg2d: Sum(rhs),rhsMax =   4.35929607833820E-05  7.27190996185881E-02
 cg2d: Sum(rhs),rhsMax =   4.37927026885540E-05  7.27818240184069E-02
 cg2d: Sum(rhs),rhsMax =   4.39940801853222E-05  7.28445368163262E-02
 cg2d: Sum(rhs),rhsMax =   4.41971034223984E-05  7.29072379634167E-02
 cg2d: Sum(rhs),rhsMax =   4.44017824646446E-05  7.29699274107660E-02
 cg2d: Sum(rhs),rhsMax =   4.46081275498594E-05  7.30326051094857E-02
 cg2d: Sum(rhs),rhsMax =   4.48161488358963E-05  7.30952710107060E-02
 cg2d: Sum(rhs),rhsMax =   4.50258567860524E-05  7.31579250655811E-02
 cg2d: Sum(rhs),rhsMax =   4.52372618122664E-05  7.32205672252822E-02
 cg2d: Sum(rhs),rhsMax =   4.54503743542740E-05  7.32831974410061E-02
 cg2d: Sum(rhs),rhsMax =   4.56652051015628E-05  7.33458156639673E-02
 cg2d: Sum(rhs),rhsMax =   4.58817641081181E-05  7.34084218454036E-02
 cg2d: Sum(rhs),rhsMax =   4.61000626069529E-05  7.34710159365747E-02
 cg2d: Sum(rhs),rhsMax =   4.63201110382071E-05  7.35335978887608E-02
 cg2d: Sum(rhs),rhsMax =   4.65419200341901E-05  7.35961676532640E-02
 cg2d: Sum(rhs),rhsMax =   4.67655006070791E-05  7.36587251814090E-02
 cg2d: Sum(rhs),rhsMax =   4.69908636111394E-05  7.37212704245422E-02
 cg2d: Sum(rhs),rhsMax =   4.72180199173871E-05  7.37838033340304E-02
 cg2d: Sum(rhs),rhsMax =   4.74469803900535E-05  7.38463238612669E-02
 cg2d: Sum(rhs),rhsMax =   4.76777562852457E-05  7.39088319576612E-02
 cg2d: Sum(rhs),rhsMax =   4.79103584660155E-05  7.39713275746495E-02
 cg2d: Sum(rhs),rhsMax =   4.81447981412059E-05  7.40338106636900E-02
 cg2d: Sum(rhs),rhsMax =   4.83810863688809E-05  7.40962811762614E-02
 cg2d: Sum(rhs),rhsMax =   4.86192345208625E-05  7.41587390638669E-02
 cg2d: Sum(rhs),rhsMax =   4.88592537390316E-05  7.42211842780311E-02
 cg2d: Sum(rhs),rhsMax =   4.91011554884513E-05  7.42836167703038E-02
 cg2d: Sum(rhs),rhsMax =   4.93449510521413E-05  7.43460364922552E-02
 cg2d: Sum(rhs),rhsMax =   4.95906513884835E-05  7.44084433954792E-02
 cg2d: Sum(rhs),rhsMax =   4.98382683879195E-05  7.44708374315938E-02
 cg2d: Sum(rhs),rhsMax =   5.00878134330075E-05  7.45332185522384E-02
 cg2d: Sum(rhs),rhsMax =   5.03392977724889E-05  7.45955867090776E-02
 cg2d: Sum(rhs),rhsMax =   5.05927330247888E-05  7.46579418537995E-02
 cg2d: Sum(rhs),rhsMax =   5.08481309869011E-05  7.47202839381141E-02
 cg2d: Sum(rhs),rhsMax =   5.11055029502033E-05  7.47826129137567E-02
 cg2d: Sum(rhs),rhsMax =   5.13648604725941E-05  7.48449287324847E-02
 cg2d: Sum(rhs),rhsMax =   5.16262150707329E-05  7.49072313460803E-02
 cg2d: Sum(rhs),rhsMax =   5.18895788271523E-05  7.49695207063506E-02
 cg2d: Sum(rhs),rhsMax =   5.21549628627223E-05  7.50317967651245E-02
 cg2d: Sum(rhs),rhsMax =   5.24223788300124E-05  7.50940594742568E-02
 cg2d: Sum(rhs),rhsMax =   5.26918386149471E-05  7.51563087856259E-02
 cg2d: Sum(rhs),rhsMax =   5.29633539635074E-05  7.52185446511344E-02
 cg2d: Sum(rhs),rhsMax =   5.32369361934213E-05  7.52807670227098E-02
 cg2d: Sum(rhs),rhsMax =   5.35125971295632E-05  7.53429758523042E-02
(PID.TID 0000.0001)      cg2d_init_res =   5.82382925474273E-03
(PID.TID 0000.0001)      cg2d_iters(min,last) =      -1      83
(PID.TID 0000.0001)      cg2d_last_res =   9.99270812252799E-08
(PID.TID 0000.0001) // =======================================================
(PID.TID 0000.0001) // Begin MONITOR dynamic field statistics
(PID.TID 0000.0001) // =======================================================
(PID.TID 0000.0001) %MON time_tsnumber                =                  1296
(PID.TID 0000.0001) %MON time_secondsf                =   1.5552000000000E+06
(PID.TID 0000.0001) %MON dynstat_eta_max              =   4.1801346790178E-02
(PID.TID 0000.0001) %MON dynstat_eta_min              =  -2.4017155322440E-02
(PID.TID 0000.0001) %MON dynstat_eta_mean             =  -2.0299286930880E-08
(PID.TID 0000.0001) %MON dynstat_eta_sd               =   1.8419508241694E-02
(PID.TID 0000.0001) %MON dynstat_eta_del2             =   5.6483830911200E-06
(PID.TID 0000.0001) %MON dynstat_uvel_max             =   1.6037590942148E-02
(PID.TID 0000.0001) %MON dynstat_uvel_min             =  -1.5614135444361E-02
(PID.TID 0000.0001) %MON dynstat_uvel_mean            =  -5.2126532658158E-07
(PID.TID 0000.0001) %MON dynstat_uvel_sd              =   7.0831451681665E-03
(PID.TID 0000.0001) %MON dynstat_uvel_del2            =   8.9493049427742E-06
(PID.TID 0000.0001) %MON dynstat_vvel_max             =   4.3013953398414E-02
(PID.TID 0000.0001) %MON dynstat_vvel_min             =  -8.0142331485149E-03
(PID.TID 0000.0001) %MON dynstat_vvel_mean            =   5.0115492816663E-09
(PID.TID 0000.0001) %MON dynstat_vvel_sd              =   9.5551130133952E-03
(PID.TID 0000.0001) %MON dynstat_vvel_del2            =   2.5493829568500E-05
(PID.TID 0000.0001) %MON dynstat_wvel_max             =   3.1315214731731E-08
(PID.TID 0000.0001) %MON dynstat_wvel_min             =  -1.1942101969616E-08
(PID.TID 0000.0001) %MON dynstat_wvel_mean            =   1.2265017327688E-21
(PID.TID 0000.0001) %MON dynstat_wvel_sd              =   1.0688163989482E-08
(PID.TID 0000.0001) %MON dynstat_wvel_del2            =   5.4140493176147E-12
(PID.TID 0000.0001) %MON dynstat_theta_max            =   2.0000000000000E+01
(PID.TID 0000.0001) %MON dynstat_theta_min            =   2.0000000000000E+01
(PID.TID 0000.0001) %MON dynstat_theta_mean           =   2.0000000000000E+01
(PID.TID 0000.0001) %MON dynstat_theta_sd             =   0.0000000000000E+00
(PID.TID 0000.0001) %MON dynstat_theta_del2           =   0.0000000000000E+00
(PID.TID 0000.0001) %MON dynstat_salt_max             =   3.0000000000000E+01
(PID.TID 0000.0001) %MON dynstat_salt_min             =   3.0000000000000E+01
(PID.TID 0000.0001) %MON dynstat_salt_mean            =   3.0000000000000E+01
(PID.TID 0000.0001) %MON dynstat_salt_sd              =   0.0000000000000E+00
(PID.TID 0000.0001) %MON dynstat_salt_del2            =   0.0000000000000E+00
(PID.TID 0000.0001) %MON trAdv_CFL_u_max              =   9.6169251797932E-04
(PID.TID 0000.0001) %MON trAdv_CFL_v_max              =   2.5784593575282E-03
(PID.TID 0000.0001) %MON trAdv_CFL_w_max              =   7.5165704998188E-09
(PID.TID 0000.0001) %MON advcfl_uvel_max              =   9.6225545652888E-04
(PID.TID 0000.0001) %MON advcfl_vvel_max              =   2.5808372039048E-03
(PID.TID 0000.0001) %MON advcfl_wvel_max              =   1.5031303071231E-08
(PID.TID 0000.0001) %MON advcfl_W_hf_max              =   0.0000000000000E+00
(PID.TID 0000.0001) %MON pe_b_mean                    =   3.3283199647278E-07
(PID.TID 0000.0001) %MON ke_max                       =   9.2501603723074E-04
(PID.TID 0000.0001) %MON ke_mean                      =   6.9556639134877E-05
(PID.TID 0000.0001) %MON ke_vol                       =   7.2000000000000E+15
(PID.TID 0000.0001) %MON vort_r_min                   =  -3.0740170741798E-07
(PID.TID 0000.0001) %MON vort_r_max                   =   1.3596252474599E-06
(PID.TID 0000.0001) %MON vort_a_mean                  =   1.0600000000000E-04
(PID.TID 0000.0001) %MON vort_a_sd                    =   3.5217339307127E-06
(PID.TID 0000.0001) %MON vort_p_mean                  =   1.1130000000000E-04
(PID.TID 0000.0001) %MON vort_p_sd                    =   4.1090763599956E-05
(PID.TID 0000.0001) %MON surfExpan_theta_mean         =   2.4527301177733E-20
(PID.TID 0000.0001) %MON surfExpan_salt_mean          =   3.6797582265220E-20
(PID.TID 0000.0001) // =======================================================
(PID.TID 0000.0001) // End MONITOR dynamic field statistics
(PID.TID 0000.0001) // =======================================================
 cg2d: Sum(rhs),rhsMax =   5.38405699480136E-05  7.54051711339465E-02
 cg2d: Sum(rhs),rhsMax =   5.41708170245341E-05  7.54673527471432E-02
 cg2d: Sum(rhs),rhsMax =   5.45033732299981E-05  7.55295206634496E-02
 cg2d: Sum(rhs),rhsMax =   5.48382185663002E-05  7.55916748454887E-02
 cg2d: Sum(rhs),rhsMax =   5.51753566216326E-05  7.56538152453799E-02
 cg2d: Sum(rhs),rhsMax =   5.55147992805545E-05  7.57159418157392E-02
 cg2d: Sum(rhs),rhsMax =   5.58565625766397E-05  7.57780545090269E-02
 cg2d: Sum(rhs),rhsMax =   5.62006631672982E-05  7.58401532772947E-02
 cg2d: Sum(rhs),rhsMax =   5.65471151023414E-05  7.59022380724271E-02
 cg2d: Sum(rhs),rhsMax =   5.68959302382609E-05  7.59643088463931E-02
 cg2d: Sum(rhs),rhsMax =   5.72471192397603E-05  7.60263655513446E-02
 cg2d: Sum(rhs),rhsMax =   5.76006924479389E-05  7.60884081395730E-02
 cg2d: Sum(rhs),rhsMax =   5.79566606657925E-05  7.61504365634307E-02
 cg2d: Sum(rhs),rhsMax =   5.83150348584822E-05  7.62124507752836E-02
 cg2d: Sum(rhs),rhsMax =   5.86758265041475E-05  7.62744507274807E-02
 cg2d: Sum(rhs),rhsMax =   5.90390465418887E-05  7.63364363723714E-02
 cg2d: Sum(rhs),rhsMax =   5.94047061184075E-05  7.63984076623217E-02
 cg2d: Sum(rhs),rhsMax =   5.97728160800521E-05  7.64603645497265E-02
 cg2d: Sum(rhs),rhsMax =   6.01433864334863E-05  7.65223069870155E-02
 cg2d: Sum(rhs),rhsMax =   6.05164275845425E-05  7.65842349266557E-02
 cg2d: Sum(rhs),rhsMax =   6.08919495888507E-05  7.66461483211386E-02
 cg2d: Sum(rhs),rhsMax =   6.12699619401361E-05  7.67080471229859E-02
 cg2d: Sum(rhs),rhsMax =   6.16504747095823E-05  7.67699312847389E-02
 cg2d: Sum(rhs),rhsMax =   6.20334966918157E-05  7.68318007589682E-02
 cg2d: Sum(rhs),rhsMax =   6.24190372660403E-05  7.68936554982686E-02
 cg2d: Sum(rhs),rhsMax =   6.28071052670848E-05  7.69554954552632E-02
 cg2d: Sum(rhs),rhsMax =   6.31977095203063E-05  7.70173205826009E-02
 cg2d: Sum(rhs),rhsMax =   6.35908578344759E-05  7.70791308329616E-02
 cg2d: Sum(rhs),rhsMax =   6.39865584847413E-05  7.71409261590483E-02
 cg2d: Sum(rhs),rhsMax =   6.43848189797631E-05  7.72027065135948E-02
 cg2d: Sum(rhs),rhsMax =   6.47856468011625E-05  7.72644718493613E-02
 cg2d: Sum(rhs),rhsMax =   6.51890486791200E-05  7.73262221191358E-02
 cg2d: Sum(rhs),rhsMax =   6.55950313493588E-05  7.73879572757327E-02
 cg2d: Sum(rhs),rhsMax =   6.60036008933076E-05  7.74496772719942E-02
 cg2d: Sum(rhs),rhsMax =   6.64147631196585E-05  7.75113820607933E-02
 cg2d: Sum(rhs),rhsMax =   6.68285233489541E-05  7.75730715950278E-02
 cg2d: Sum(rhs),rhsMax =   6.72448863605762E-05  7.76347458276253E-02
 cg2d: Sum(rhs),rhsMax =   6.76638567875028E-05  7.76964047115395E-02
 cg2d: Sum(rhs),rhsMax =   6.80854387065822E-05  7.77580481997547E-02
 cg2d: Sum(rhs),rhsMax =   6.85096351264909E-05  7.78196762452830E-02
 cg2d: Sum(rhs),rhsMax =   6.89364495596902E-05  7.78812888011646E-02
 cg2d: Sum(rhs),rhsMax =   6.93658836909555E-05  7.79428858204663E-02
 cg2d: Sum(rhs),rhsMax =   6.97979395967493E-05  7.80044672562888E-02
 cg2d: Sum(rhs),rhsMax =   7.02326184784264E-05  7.80660330617553E-02
 cg2d: Sum(rhs),rhsMax =   7.06699207781436E-05  7.81275831900221E-02
 cg2d: Sum(rhs),rhsMax =   7.11098464535962E-05  7.81891175942716E-02
 cg2d: Sum(rhs),rhsMax =   7.15523946606643E-05  7.82506362277182E-02
 cg2d: Sum(rhs),rhsMax =   7.19975639689365E-05  7.83121390436038E-02
 cg2d: Sum(rhs),rhsMax =   7.24453521419310E-05  7.83736259951973E-02
 cg2d: Sum(rhs),rhsMax =   7.28957559801117E-05  7.84350970358013E-02
 cg2d: Sum(rhs),rhsMax =   7.33487719924864E-05  7.84965521187441E-02
 cg2d: Sum(rhs),rhsMax =   7.38043952697338E-05  7.85579911973854E-02
 cg2d: Sum(rhs),rhsMax =   7.42626203811547E-05  7.86194142251136E-02
 cg2d: Sum(rhs),rhsMax =   7.47234409913221E-05  7.86808211553473E-02
 cg2d: Sum(rhs),rhsMax =   7.51868496817083E-05  7.87422119415342E-02
 cg2d: Sum(rhs),rhsMax =   7.56528382772816E-05  7.88035865371527E-02
 cg2d: Sum(rhs),rhsMax =   7.61213974332670E-05  7.88649448957093E-02
 cg2d: Sum(rhs),rhsMax =   7.65925167400157E-05  7.89262869707434E-02
 cg2d: Sum(rhs),rhsMax =   7.70661847379478E-05  7.89876127158219E-02
 cg2d: Sum(rhs),rhsMax =   7.75423890061605E-05  7.90489220845431E-02
 cg2d: Sum(rhs),rhsMax =   7.80211158144736E-05  7.91102150305346E-02
 cg2d: Sum(rhs),rhsMax =   7.85023502444249E-05  7.91714915074560E-02
 cg2d: Sum(rhs),rhsMax =   7.89860763375800E-05  7.92327514689961E-02
 cg2d: Sum(rhs),rhsMax =   7.94722764569239E-05  7.92939948688753E-02
 cg2d: Sum(rhs),rhsMax =   7.99609321502134E-05  7.93552216608416E-02
 cg2d: Sum(rhs),rhsMax =   8.04520229705334E-05  7.94164317986784E-02
 cg2d: Sum(rhs),rhsMax =   8.09455273807595E-05  7.94776252361970E-02
 cg2d: Sum(rhs),rhsMax =   8.14414224264599E-05  7.95388019272387E-02
 cg2d: Sum(rhs),rhsMax =   8.19396836494769E-05  7.95999618256798E-02
 cg2d: Sum(rhs),rhsMax =   8.24402847794860E-05  7.96611048854226E-02
 cg2d: Sum(rhs),rhsMax =   8.29431980694014E-05  7.97222310604044E-02
 cg2d: Sum(rhs),rhsMax =   8.34483941887249E-05  7.97833403045917E-02
(PID.TID 0000.0001)      cg2d_init_res =   5.46196637428129E-03
(PID.TID 0000.0001)      cg2d_iters(min,last) =      -1      83
(PID.TID 0000.0001)      cg2d_last_res =   8.43015555190476E-08
(PID.TID 0000.0001) // =======================================================
(PID.TID 0000.0001) // Begin MONITOR dynamic field statistics
(PID.TID 0000.0001) // =======================================================
(PID.TID 0000.0001) %MON time_tsnumber                =                  1368
(PID.TID 0000.0001) %MON time_secondsf                =   1.6416000000000E+06
(PID.TID 0000.0001) %MON dynstat_eta_max              =   4.3827364614327E-02
(PID.TID 0000.0001) %MON dynstat_eta_min              =  -2.4353892077861E-02
(PID.TID 0000.0001) %MON dynstat_eta_mean             =  -3.3517032737765E-08
(PID.TID 0000.0001) %MON dynstat_eta_sd               =   1.9005182531848E-02
(PID.TID 0000.0001) %MON dynstat_eta_del2             =   6.0823416829067E-06
(PID.TID 0000.0001) %MON dynstat_uvel_max             =   1.6683454667044E-02
(PID.TID 0000.0001) %MON dynstat_uvel_min             =  -1.6164075724208E-02
(PID.TID 0000.0001) %MON dynstat_uvel_mean            =  -4.9737832365239E-07
(PID.TID 0000.0001) %MON dynstat_uvel_sd              =   7.2380758033103E-03
(PID.TID 0000.0001) %MON dynstat_uvel_del2            =   9.0610697093853E-06
(PID.TID 0000.0001) %MON dynstat_vvel_max             =   4.5857445214811E-02
(PID.TID 0000.0001) %MON dynstat_vvel_min             =  -8.4390290957323E-03
(PID.TID 0000.0001) %MON dynstat_vvel_mean            =   8.2834470607431E-09
(PID.TID 0000.0001) %MON dynstat_vvel_sd              =   1.0028446543141E-02
(PID.TID 0000.0001) %MON dynstat_vvel_del2            =   2.7441385119933E-05
(PID.TID 0000.0001) %MON dynstat_wvel_max             =   3.1045027474174E-08
(PID.TID 0000.0001) %MON dynstat_wvel_min             =  -1.2239263813244E-08
(PID.TID 0000.0001) %MON dynstat_wvel_mean            =   1.3895022574515E-21
(PID.TID 0000.0001) %MON dynstat_wvel_sd              =   1.0379540296992E-08
(PID.TID 0000.0001) %MON dynstat_wvel_del2            =   5.5122624014414E-12
(PID.TID 0000.0001) %MON dynstat_theta_max            =   2.0000000000000E+01
(PID.TID 0000.0001) %MON dynstat_theta_min            =   2.0000000000000E+01
(PID.TID 0000.0001) %MON dynstat_theta_mean           =   2.0000000000000E+01
(PID.TID 0000.0001) %MON dynstat_theta_sd             =   0.0000000000000E+00
(PID.TID 0000.0001) %MON dynstat_theta_del2           =   0.0000000000000E+00
(PID.TID 0000.0001) %MON dynstat_salt_max             =   3.0000000000000E+01
(PID.TID 0000.0001) %MON dynstat_salt_min             =   3.0000000000000E+01
(PID.TID 0000.0001) %MON dynstat_salt_mean            =   3.0000000000000E+01
(PID.TID 0000.0001) %MON dynstat_salt_sd              =   0.0000000000000E+00
(PID.TID 0000.0001) %MON dynstat_salt_del2            =   0.0000000000000E+00
(PID.TID 0000.0001) %MON trAdv_CFL_u_max              =   1.0004935880815E-03
(PID.TID 0000.0001) %MON trAdv_CFL_v_max              =   2.7490863486503E-03
(PID.TID 0000.0001) %MON trAdv_CFL_w_max              =   7.4520853683818E-09
(PID.TID 0000.0001) %MON advcfl_uvel_max              =   1.0010072800226E-03
(PID.TID 0000.0001) %MON advcfl_vvel_max              =   2.7514467128886E-03
(PID.TID 0000.0001) %MON advcfl_wvel_max              =   1.4901613187604E-08
(PID.TID 0000.0001) %MON advcfl_W_hf_max              =   0.0000000000000E+00
(PID.TID 0000.0001) %MON pe_b_mean                    =   3.5433422077165E-07
(PID.TID 0000.0001) %MON ke_max                       =   1.0513558090661E-03
(PID.TID 0000.0001) %MON ke_mean                      =   7.5205078478193E-05
(PID.TID 0000.0001) %MON ke_vol                       =   7.2000000000000E+15
(PID.TID 0000.0001) %MON vort_r_min                   =  -3.3762898434863E-07
(PID.TID 0000.0001) %MON vort_r_max                   =   1.4322737136832E-06
(PID.TID 0000.0001) %MON vort_a_mean                  =   1.0600000000000E-04
(PID.TID 0000.0001) %MON vort_a_sd                    =   3.5222005647697E-06
(PID.TID 0000.0001) %MON vort_p_mean                  =   1.1130000000000E-04
(PID.TID 0000.0001) %MON vort_p_sd                    =   4.1094705025944E-05
(PID.TID 0000.0001) %MON surfExpan_theta_mean         =   2.7801484571278E-20
(PID.TID 0000.0001) %MON surfExpan_salt_mean          =   4.1703490044003E-20
(PID.TID 0000.0001) // =======================================================
(PID.TID 0000.0001) // End MONITOR dynamic field statistics
(PID.TID 0000.0001) // =======================================================
 cg2d: Sum(rhs),rhsMax =   8.39558417866908E-05  7.98444325719842E-02
 cg2d: Sum(rhs),rhsMax =   8.44655078865476E-05  7.99055078166110E-02
 cg2d: Sum(rhs),rhsMax =   8.49773578317139E-05  7.99665659925340E-02
 cg2d: Sum(rhs),rhsMax =   8.54913546903951E-05  8.00276070538462E-02
 cg2d: Sum(rhs),rhsMax =   8.60074600309273E-05  8.00886309546720E-02
 cg2d: Sum(rhs),rhsMax =   8.65256327169314E-05  8.01496376491686E-02
 cg2d: Sum(rhs),rhsMax =   8.70458303722857E-05  8.02106270915243E-02
 cg2d: Sum(rhs),rhsMax =   8.75680076891233E-05  8.02715992359596E-02
 cg2d: Sum(rhs),rhsMax =   8.80921175568008E-05  8.03325540367275E-02
 cg2d: Sum(rhs),rhsMax =   8.86181108408698E-05  8.03934914481115E-02
 cg2d: Sum(rhs),rhsMax =   8.91459352999942E-05  8.04544114244303E-02
 cg2d: Sum(rhs),rhsMax =   8.96755370492393E-05  8.05153139200304E-02
 cg2d: Sum(rhs),rhsMax =   9.02068591908164E-05  8.05761988892965E-02
 cg2d: Sum(rhs),rhsMax =   9.11103161612796E-05  8.06370662278679E-02
 cg2d: Sum(rhs),rhsMax =   9.20130020240460E-05  8.06979160199944E-02
 cg2d: Sum(rhs),rhsMax =   9.30210895333586E-05  8.07587482710058E-02
 cg2d: Sum(rhs),rhsMax =   9.40269151427798E-05  8.08195626766112E-02
 cg2d: Sum(rhs),rhsMax =   9.50303011125874E-05  8.08803593395394E-02
 cg2d: Sum(rhs),rhsMax =   9.60310739189559E-05  8.09411382036105E-02
 cg2d: Sum(rhs),rhsMax =   9.70290713959692E-05  8.10018992231280E-02
 cg2d: Sum(rhs),rhsMax =   9.80241289624869E-05  8.10626423530835E-02
 cg2d: Sum(rhs),rhsMax =   9.91053405751188E-05  8.11233673573318E-02
 cg2d: Sum(rhs),rhsMax =   1.00182137324096E-04  8.11840745652676E-02
 cg2d: Sum(rhs),rhsMax =   1.01254314595059E-04  8.12447637568763E-02
 cg2d: Sum(rhs),rhsMax =   1.02321680974373E-04  8.13054348772438E-02
 cg2d: Sum(rhs),rhsMax =   1.03384038594031E-04  8.13660878804477E-02
 cg2d: Sum(rhs),rhsMax =   1.04441186403743E-04  8.14267227215033E-02
 cg2d: Sum(rhs),rhsMax =   1.05492921806677E-04  8.14873393556778E-02
 cg2d: Sum(rhs),rhsMax =   1.06539039953472E-04  8.15479377380417E-02
 cg2d: Sum(rhs),rhsMax =   1.07579334144027E-04  8.16085178235360E-02
 cg2d: Sum(rhs),rhsMax =   1.08613595997568E-04  8.16690795671195E-02
 cg2d: Sum(rhs),rhsMax =   1.09641615545141E-04  8.17296229237987E-02
 cg2d: Sum(rhs),rhsMax =   1.10663181045816E-04  8.17901478486165E-02
 cg2d: Sum(rhs),rhsMax =   1.11678079189449E-04  8.18506542966454E-02
 cg2d: Sum(rhs),rhsMax =   1.12686095487235E-04  8.19111422229901E-02
 cg2d: Sum(rhs),rhsMax =   1.13687013778488E-04  8.19716115827944E-02
 cg2d: Sum(rhs),rhsMax =   1.14680616781110E-04  8.20320623312418E-02
 cg2d: Sum(rhs),rhsMax =   1.15745240409743E-04  8.20924943947741E-02
 cg2d: Sum(rhs),rhsMax =   1.16800733338035E-04  8.21529077811601E-02
 cg2d: Sum(rhs),rhsMax =   1.17846884230223E-04  8.22133024280550E-02
 cg2d: Sum(rhs),rhsMax =   1.18883474342239E-04  8.22736782864159E-02
 cg2d: Sum(rhs),rhsMax =   1.19910284228494E-04  8.23340353093823E-02
 cg2d: Sum(rhs),rhsMax =   1.20927091347854E-04  8.23943734521550E-02
 cg2d: Sum(rhs),rhsMax =   1.21933671569095E-04  8.24546926704107E-02
 cg2d: Sum(rhs),rhsMax =   1.22929801607618E-04  8.25149929198244E-02
 cg2d: Sum(rhs),rhsMax =   1.23915259501029E-04  8.25752741560378E-02
 cg2d: Sum(rhs),rhsMax =   1.24889823888925E-04  8.26355363346817E-02
 cg2d: Sum(rhs),rhsMax =   1.25853274937611E-04  8.26957794113563E-02
 cg2d: Sum(rhs),rhsMax =   1.26805393371291E-04  8.27560033416427E-02
 cg2d: Sum(rhs),rhsMax =   1.27745961291791E-04  8.28162080811331E-02
 cg2d: Sum(rhs),rhsMax =   1.28674761209296E-04  8.28763935854679E-02
 cg2d: Sum(rhs),rhsMax =   1.29591577462656E-04  8.29365598103454E-02
 cg2d: Sum(rhs),rhsMax =   1.30496195665877E-04  8.29967067115210E-02
 cg2d: Sum(rhs),rhsMax =   1.31388402837851E-04  8.30568342447925E-02
 cg2d: Sum(rhs),rhsMax =   1.32267987845552E-04  8.31169423659915E-02
 cg2d: Sum(rhs),rhsMax =   1.33134741988200E-04  8.31770310309751E-02
 cg2d: Sum(rhs),rhsMax =   1.33988457821916E-04  8.32371001956350E-02
 cg2d: Sum(rhs),rhsMax =   1.34828930861261E-04  8.32971498158936E-02
 cg2d: Sum(rhs),rhsMax =   1.35655958273629E-04  8.33571798477114E-02
 cg2d: Sum(rhs),rhsMax =   1.36469340286820E-04  8.34171902470886E-02
 cg2d: Sum(rhs),rhsMax =   1.37268879534764E-04  8.34771809700598E-02
 cg2d: Sum(rhs),rhsMax =   1.38054381037101E-04  8.35371519727009E-02
 cg2d: Sum(rhs),rhsMax =   1.38825653576166E-04  8.35971032111242E-02
 cg2d: Sum(rhs),rhsMax =   1.39582508425959E-04  8.36570346414773E-02
 cg2d: Sum(rhs),rhsMax =   1.40324760134780E-04  8.37169462199462E-02
 cg2d: Sum(rhs),rhsMax =   1.41052226821500E-04  8.37768379027506E-02
 cg2d: Sum(rhs),rhsMax =   1.41812324489668E-04  8.38367097832820E-02
 cg2d: Sum(rhs),rhsMax =   1.42555989382414E-04  8.38965615274364E-02
 cg2d: Sum(rhs),rhsMax =   1.43283033057436E-04  8.39563932587630E-02
 cg2d: Sum(rhs),rhsMax =   1.43993309455302E-04  8.40162049231327E-02
 cg2d: Sum(rhs),rhsMax =   1.44686669062602E-04  8.40759964731755E-02
 cg2d: Sum(rhs),rhsMax =   1.45362965670701E-04  8.41357678649283E-02
(PID.TID 0000.0001)      cg2d_init_res =   5.13016934844182E-03
(PID.TID 0000.0001)      cg2d_iters(min,last) =      -1      76
(PID.TID 0000.0001)      cg2d_last_res =   9.51453665708959E-08
(PID.TID 0000.0001) // =======================================================
(PID.TID 0000.0001) // Begin MONITOR dynamic field statistics
(PID.TID 0000.0001) // =======================================================
(PID.TID 0000.0001) %MON time_tsnumber                =                  1440
(PID.TID 0000.0001) %MON time_secondsf                =   1.7280000000000E+06
(PID.TID 0000.0001) %MON dynstat_eta_max              =   4.5864444112530E-02
(PID.TID 0000.0001) %MON dynstat_eta_min              =  -2.4591020531216E-02
(PID.TID 0000.0001) %MON dynstat_eta_mean             =  -6.1472014754111E-08
(PID.TID 0000.0001) %MON dynstat_eta_sd               =   1.9530356739116E-02
(PID.TID 0000.0001) %MON dynstat_eta_del2             =   6.5218636286329E-06
(PID.TID 0000.0001) %MON dynstat_uvel_max             =   1.7290316746058E-02
(PID.TID 0000.0001) %MON dynstat_uvel_min             =  -1.6676350904984E-02
(PID.TID 0000.0001) %MON dynstat_uvel_mean            =  -4.6877834069738E-07
(PID.TID 0000.0001) %MON dynstat_uvel_sd              =   7.3664573310565E-03
(PID.TID 0000.0001) %MON dynstat_uvel_del2            =   9.1298474858053E-06
(PID.TID 0000.0001) %MON dynstat_vvel_max             =   4.8670138978876E-02
(PID.TID 0000.0001) %MON dynstat_vvel_min             =  -8.9111254924442E-03
(PID.TID 0000.0001) %MON dynstat_vvel_mean            =   1.1469949868334E-08
(PID.TID 0000.0001) %MON dynstat_vvel_sd              =   1.0488138173006E-02
(PID.TID 0000.0001) %MON dynstat_vvel_del2            =   2.9398375680147E-05
(PID.TID 0000.0001) %MON dynstat_wvel_max             =   3.0578116888064E-08
(PID.TID 0000.0001) %MON dynstat_wvel_min             =  -1.2631742692029E-08
(PID.TID 0000.0001) %MON dynstat_wvel_mean            =  -2.8738466224038E-22
(PID.TID 0000.0001) %MON dynstat_wvel_sd              =   1.0081767257803E-08
(PID.TID 0000.0001) %MON dynstat_wvel_del2            =   5.5966322060991E-12
(PID.TID 0000.0001) %MON dynstat_theta_max            =   2.0000000000000E+01
(PID.TID 0000.0001) %MON dynstat_theta_min            =   2.0000000000000E+01
(PID.TID 0000.0001) %MON dynstat_theta_mean           =   2.0000000000000E+01
(PID.TID 0000.0001) %MON dynstat_theta_sd             =   0.0000000000000E+00
(PID.TID 0000.0001) %MON dynstat_theta_del2           =   0.0000000000000E+00
(PID.TID 0000.0001) %MON dynstat_salt_max             =   3.0000000000000E+01
(PID.TID 0000.0001) %MON dynstat_salt_min             =   3.0000000000000E+01
(PID.TID 0000.0001) %MON dynstat_salt_mean            =   3.0000000000000E+01
(PID.TID 0000.0001) %MON dynstat_salt_sd              =   0.0000000000000E+00
(PID.TID 0000.0001) %MON dynstat_salt_del2            =   0.0000000000000E+00
(PID.TID 0000.0001) %MON trAdv_CFL_u_max              =   1.0369117129321E-03
(PID.TID 0000.0001) %MON trAdv_CFL_v_max              =   2.9178821149589E-03
(PID.TID 0000.0001) %MON trAdv_CFL_w_max              =   7.3406872822903E-09
(PID.TID 0000.0001) %MON advcfl_uvel_max              =   1.0374190047635E-03
(PID.TID 0000.0001) %MON advcfl_vvel_max              =   2.9202083387326E-03
(PID.TID 0000.0001) %MON advcfl_wvel_max              =   1.4677496106271E-08
(PID.TID 0000.0001) %MON advcfl_W_hf_max              =   0.0000000000000E+00
(PID.TID 0000.0001) %MON pe_b_mean                    =   3.7418757250806E-07
(PID.TID 0000.0001) %MON ke_max                       =   1.1840399224004E-03
(PID.TID 0000.0001) %MON ke_mean                      =   8.0763986948397E-05
(PID.TID 0000.0001) %MON ke_vol                       =   7.2000000000000E+15
(PID.TID 0000.0001) %MON vort_r_min                   =  -3.6889145363302E-07
(PID.TID 0000.0001) %MON vort_r_max                   =   1.5029800754882E-06
(PID.TID 0000.0001) %MON vort_a_mean                  =   1.0600000000000E-04
(PID.TID 0000.0001) %MON vort_a_sd                    =   3.5226890762127E-06
(PID.TID 0000.0001) %MON vort_p_mean                  =   1.1130000000000E-04
(PID.TID 0000.0001) %MON vort_p_sd                    =   4.1098418667913E-05
(PID.TID 0000.0001) %MON surfExpan_theta_mean         =  -5.7506592080851E-21
(PID.TID 0000.0001) %MON surfExpan_salt_mean          =  -8.6228308444131E-21
(PID.TID 0000.0001) // =======================================================
(PID.TID 0000.0001) // End MONITOR dynamic field statistics
(PID.TID 0000.0001) // =======================================================
 cg2d: Sum(rhs),rhsMax =   1.46022057789545E-04  8.41955190549832E-02
 cg2d: Sum(rhs),rhsMax =   1.46663808526348E-04  8.42552500000949E-02
 cg2d: Sum(rhs),rhsMax =   1.47288085575493E-04  8.43149606570941E-02
 cg2d: Sum(rhs),rhsMax =   1.47894761392457E-04  8.43746509827822E-02
 cg2d: Sum(rhs),rhsMax =   1.48483712752992E-04  8.44343209338689E-02
 cg2d: Sum(rhs),rhsMax =   1.49054821599930E-04  8.44939704669902E-02
 cg2d: Sum(rhs),rhsMax =   1.49607974356945E-04  8.45535995387778E-02
 cg2d: Sum(rhs),rhsMax =   1.50143062916013E-04  8.46132081059203E-02
 cg2d: Sum(rhs),rhsMax =   1.50659983801028E-04  8.46727961251820E-02
 cg2d: Sum(rhs),rhsMax =   1.51158638877623E-04  8.47323635534000E-02
 cg2d: Sum(rhs),rhsMax =   1.51638935257077E-04  8.47919103474610E-02
 cg2d: Sum(rhs),rhsMax =   1.52100785159199E-04  8.48514364642857E-02
 cg2d: Sum(rhs),rhsMax =   1.52544106117867E-04  8.49109418608220E-02
 cg2d: Sum(rhs),rhsMax =   1.52968820658864E-04  8.49704264940505E-02
 cg2d: Sum(rhs),rhsMax =   1.53374857086622E-04  8.50298903209818E-02
 cg2d: Sum(rhs),rhsMax =   1.53762148723540E-04  8.50893332986707E-02
 cg2d: Sum(rhs),rhsMax =   1.54130634396385E-04  8.51487553842092E-02
 cg2d: Sum(rhs),rhsMax =   1.54480258587561E-04  8.52081565347369E-02
 cg2d: Sum(rhs),rhsMax =   1.54810970605742E-04  8.52675367074269E-02
 cg2d: Sum(rhs),rhsMax =   1.55122725709745E-04  8.53268958594947E-02
 cg2d: Sum(rhs),rhsMax =   1.55438126931045E-04  8.53862338699396E-02
 cg2d: Sum(rhs),rhsMax =   1.55733313793793E-04  8.54455508357050E-02
 cg2d: Sum(rhs),rhsMax =   1.56008261278895E-04  8.55048466685961E-02
 cg2d: Sum(rhs),rhsMax =   1.56262955605627E-04  8.55641213131124E-02
 cg2d: Sum(rhs),rhsMax =   1.56497390860783E-04  8.56233747233757E-02
 cg2d: Sum(rhs),rhsMax =   1.56711565854428E-04  8.56826068562212E-02
 cg2d: Sum(rhs),rhsMax =   1.56905484469829E-04  8.57418176691742E-02
 cg2d: Sum(rhs),rhsMax =   1.57079156340679E-04  8.58010071200498E-02
 cg2d: Sum(rhs),rhsMax =   1.57232595536533E-04  8.58601751667987E-02
 cg2d: Sum(rhs),rhsMax =   1.57365820935090E-04  8.59193217673227E-02
 cg2d: Sum(rhs),rhsMax =   1.57478856266244E-04  8.59784468793732E-02
 cg2d: Sum(rhs),rhsMax =   1.57571729975978E-04  8.60375504605846E-02
 cg2d: Sum(rhs),rhsMax =   1.57644475450591E-04  8.60966324685728E-02
 cg2d: Sum(rhs),rhsMax =   1.57697065005251E-04  8.61557288758379E-02
 cg2d: Sum(rhs),rhsMax =   1.57729522707600E-04  8.62148499783663E-02
 cg2d: Sum(rhs),rhsMax =   1.57741980170604E-04  8.62739496946391E-02
 cg2d: Sum(rhs),rhsMax =   1.57734489842840E-04  8.63330279830422E-02
 cg2d: Sum(rhs),rhsMax =   1.57707108219000E-04  8.63920848019953E-02
 cg2d: Sum(rhs),rhsMax =   1.57659896386666E-04  8.64511201099403E-02
 cg2d: Sum(rhs),rhsMax =   1.57592919677900E-04  8.65101338653506E-02
 cg2d: Sum(rhs),rhsMax =   1.57506247743690E-04  8.65691260267311E-02
 cg2d: Sum(rhs),rhsMax =   1.57399954616192E-04  8.66280965526338E-02
 cg2d: Sum(rhs),rhsMax =   1.57274118097196E-04  8.66870454016525E-02
 cg2d: Sum(rhs),rhsMax =   1.57128820559937E-04  8.67459725324263E-02
 cg2d: Sum(rhs),rhsMax =   1.56964147576502E-04  8.68048779036397E-02
 cg2d: Sum(rhs),rhsMax =   1.56780189326902E-04  8.68637614740136E-02
 cg2d: Sum(rhs),rhsMax =   1.56577039181821E-04  8.69226232023135E-02
 cg2d: Sum(rhs),rhsMax =   1.56354794623403E-04  8.69814630473437E-02
 cg2d: Sum(rhs),rhsMax =   1.56113556472158E-04  8.70402809679485E-02
 cg2d: Sum(rhs),rhsMax =   1.55853429120670E-04  8.70990769230157E-02
 cg2d: Sum(rhs),rhsMax =   1.55574520281679E-04  8.71578508714729E-02
 cg2d: Sum(rhs),rhsMax =   1.55276941185492E-04  8.72166027722899E-02
 cg2d: Sum(rhs),rhsMax =   1.54960806243257E-04  8.72753325844782E-02
 cg2d: Sum(rhs),rhsMax =   1.54626232646553E-04  8.73340402670899E-02
 cg2d: Sum(rhs),rhsMax =   1.54273340928046E-04  8.73927257792220E-02
 cg2d: Sum(rhs),rhsMax =   1.53902254499809E-04  8.74513890800110E-02
 cg2d: Sum(rhs),rhsMax =   1.53513099406770E-04  8.75100301286343E-02
 cg2d: Sum(rhs),rhsMax =   1.53106004814919E-04  8.75686488843138E-02
 cg2d: Sum(rhs),rhsMax =   1.52681102064560E-04  8.76272453063138E-02
 cg2d: Sum(rhs),rhsMax =   1.52238525090994E-04  8.76858193539374E-02
 cg2d: Sum(rhs),rhsMax =   1.51778410415160E-04  8.77443709865342E-02
 cg2d: Sum(rhs),rhsMax =   1.51300896970009E-04  8.78029001634922E-02
 cg2d: Sum(rhs),rhsMax =   1.50806125552631E-04  8.78614068442437E-02
 cg2d: Sum(rhs),rhsMax =   1.50294239218503E-04  8.79198909882635E-02
 cg2d: Sum(rhs),rhsMax =   1.49765383263932E-04  8.79783525550688E-02
 cg2d: Sum(rhs),rhsMax =   1.49219704692271E-04  8.80367915042185E-02
 cg2d: Sum(rhs),rhsMax =   1.48657352397481E-04  8.80952077953147E-02
 cg2d: Sum(rhs),rhsMax =   1.48078476848688E-04  8.81536013880022E-02
 cg2d: Sum(rhs),rhsMax =   1.47483230391928E-04  8.82119722419694E-02
 cg2d: Sum(rhs),rhsMax =   1.46871766857804E-04  8.82703203169458E-02
 cg2d: Sum(rhs),rhsMax =   1.46244241280421E-04  8.83286455727052E-02
 cg2d: Sum(rhs),rhsMax =   1.45600810394537E-04  8.83869479690652E-02
(PID.TID 0000.0001)      cg2d_init_res =   4.82441587833432E-03
(PID.TID 0000.0001)      cg2d_iters(min,last) =      -1      76
(PID.TID 0000.0001)      cg2d_last_res =   8.42082272180946E-08
(PID.TID 0000.0001) // =======================================================
(PID.TID 0000.0001) // Begin MONITOR dynamic field statistics
(PID.TID 0000.0001) // =======================================================
(PID.TID 0000.0001) %MON time_tsnumber                =                  1512
(PID.TID 0000.0001) %MON time_secondsf                =   1.8144000000000E+06
(PID.TID 0000.0001) %MON dynstat_eta_max              =   4.7738176236398E-02
(PID.TID 0000.0001) %MON dynstat_eta_min              =  -2.4733625725831E-02
(PID.TID 0000.0001) %MON dynstat_eta_mean             =  -6.4110248631324E-08
(PID.TID 0000.0001) %MON dynstat_eta_sd               =   1.9994376412015E-02
(PID.TID 0000.0001) %MON dynstat_eta_del2             =   6.9656915213333E-06
(PID.TID 0000.0001) %MON dynstat_uvel_max             =   1.7888309004962E-02
(PID.TID 0000.0001) %MON dynstat_uvel_min             =  -1.7147232294023E-02
(PID.TID 0000.0001) %MON dynstat_uvel_mean            =  -4.3590107006316E-07
(PID.TID 0000.0001) %MON dynstat_uvel_sd              =   7.4691656555316E-03
(PID.TID 0000.0001) %MON dynstat_uvel_del2            =   9.1592366173440E-06
(PID.TID 0000.0001) %MON dynstat_vvel_max             =   5.1435707498353E-02
(PID.TID 0000.0001) %MON dynstat_vvel_min             =  -9.4210554639893E-03
(PID.TID 0000.0001) %MON dynstat_vvel_mean            =   1.4532731338959E-08
(PID.TID 0000.0001) %MON dynstat_vvel_sd              =   1.0932871958623E-02
(PID.TID 0000.0001) %MON dynstat_vvel_del2            =   3.1356664201994E-05
(PID.TID 0000.0001) %MON dynstat_wvel_max             =   3.0054145682370E-08
(PID.TID 0000.0001) %MON dynstat_wvel_min             =  -1.3103816235380E-08
(PID.TID 0000.0001) %MON dynstat_wvel_mean            =   3.7171849322072E-21
(PID.TID 0000.0001) %MON dynstat_wvel_sd              =   9.7987505600769E-09
(PID.TID 0000.0001) %MON dynstat_wvel_del2            =   5.6668898688123E-12
(PID.TID 0000.0001) %MON dynstat_theta_max            =   2.0000000000000E+01
(PID.TID 0000.0001) %MON dynstat_theta_min            =   2.0000000000000E+01
(PID.TID 0000.0001) %MON dynstat_theta_mean           =   2.0000000000000E+01
(PID.TID 0000.0001) %MON dynstat_theta_sd             =   0.0000000000000E+00
(PID.TID 0000.0001) %MON dynstat_theta_del2           =   0.0000000000000E+00
(PID.TID 0000.0001) %MON dynstat_salt_max             =   3.0000000000000E+01
(PID.TID 0000.0001) %MON dynstat_salt_min             =   3.0000000000000E+01
(PID.TID 0000.0001) %MON dynstat_salt_mean            =   3.0000000000000E+01
(PID.TID 0000.0001) %MON dynstat_salt_sd              =   0.0000000000000E+00
(PID.TID 0000.0001) %MON dynstat_salt_del2            =   0.0000000000000E+00
(PID.TID 0000.0001) %MON trAdv_CFL_u_max              =   1.0728170572809E-03
(PID.TID 0000.0001) %MON trAdv_CFL_v_max              =   3.0838604174914E-03
(PID.TID 0000.0001) %MON trAdv_CFL_w_max              =   7.2145315954462E-09
(PID.TID 0000.0001) %MON advcfl_uvel_max              =   1.0732985402977E-03
(PID.TID 0000.0001) %MON advcfl_vvel_max              =   3.0861424499012E-03
(PID.TID 0000.0001) %MON advcfl_wvel_max              =   1.4425989927538E-08
(PID.TID 0000.0001) %MON advcfl_W_hf_max              =   0.0000000000000E+00
(PID.TID 0000.0001) %MON pe_b_mean                    =   3.9217936143537E-07
(PID.TID 0000.0001) %MON ke_max                       =   1.3221318899009E-03
(PID.TID 0000.0001) %MON ke_mean                      =   8.6197094813127E-05
(PID.TID 0000.0001) %MON ke_vol                       =   7.2000000000000E+15
(PID.TID 0000.0001) %MON vort_r_min                   =  -4.0109308078873E-07
(PID.TID 0000.0001) %MON vort_r_max                   =   1.5714868755500E-06
(PID.TID 0000.0001) %MON vort_a_mean                  =   1.0600000000000E-04
(PID.TID 0000.0001) %MON vort_a_sd                    =   3.5231971164729E-06
(PID.TID 0000.0001) %MON vort_p_mean                  =   1.1130000000000E-04
(PID.TID 0000.0001) %MON vort_p_sd                    =   4.1101918396221E-05
(PID.TID 0000.0001) %MON surfExpan_theta_mean         =   7.4340770576479E-20
(PID.TID 0000.0001) %MON surfExpan_salt_mean          =   1.1151115586472E-19
(PID.TID 0000.0001) // =======================================================
(PID.TID 0000.0001) // End MONITOR dynamic field statistics
(PID.TID 0000.0001) // =======================================================
 cg2d: Sum(rhs),rhsMax =   1.44971640419961E-04  8.84452275551263E-02
 cg2d: Sum(rhs),rhsMax =   1.44327787029509E-04  8.85034841251731E-02
 cg2d: Sum(rhs),rhsMax =   1.43669433700068E-04  8.85617177045352E-02
 cg2d: Sum(rhs),rhsMax =   1.42996731296637E-04  8.86199282620393E-02
 cg2d: Sum(rhs),rhsMax =   1.42309837940478E-04  8.86781157605006E-02
 cg2d: Sum(rhs),rhsMax =   1.41608915511720E-04  8.87362801602816E-02
 cg2d: Sum(rhs),rhsMax =   1.40894126436817E-04  8.87944214213602E-02
 cg2d: Sum(rhs),rhsMax =   1.40165633895158E-04  8.88525395036285E-02
 cg2d: Sum(rhs),rhsMax =   1.39423600849547E-04  8.89106343669538E-02
 cg2d: Sum(rhs),rhsMax =   1.38668190900200E-04  8.89687059713268E-02
 cg2d: Sum(rhs),rhsMax =   1.37899568068957E-04  8.90267542769603E-02
 cg2d: Sum(rhs),rhsMax =   1.37117896324169E-04  8.90847792442524E-02
 cg2d: Sum(rhs),rhsMax =   1.36323340153201E-04  8.91427808336949E-02
 cg2d: Sum(rhs),rhsMax =   1.35516064053301E-04  8.92007590057903E-02
 cg2d: Sum(rhs),rhsMax =   1.34696232629546E-04  8.92587137210302E-02
 cg2d: Sum(rhs),rhsMax =   1.33864010396131E-04  8.93166449399083E-02
 cg2d: Sum(rhs),rhsMax =   1.33019561774958E-04  8.93745526229502E-02
 cg2d: Sum(rhs),rhsMax =   1.32163050940246E-04  8.94324367307341E-02
 cg2d: Sum(rhs),rhsMax =   1.31294641910563E-04  8.94902972238969E-02
 cg2d: Sum(rhs),rhsMax =   1.30414498582237E-04  8.95481340631343E-02
 cg2d: Sum(rhs),rhsMax =   1.29522784039248E-04  8.96059472091894E-02
 cg2d: Sum(rhs),rhsMax =   1.28619661242401E-04  8.96637366228486E-02
 cg2d: Sum(rhs),rhsMax =   1.27705292543766E-04  8.97215022649386E-02
 cg2d: Sum(rhs),rhsMax =   1.26779839957347E-04  8.97792440963280E-02
 cg2d: Sum(rhs),rhsMax =   1.25843464697776E-04  8.98369620779281E-02
 cg2d: Sum(rhs),rhsMax =   1.24896327331123E-04  8.98946561706941E-02
 cg2d: Sum(rhs),rhsMax =   1.23938587850023E-04  8.99523263356270E-02
 cg2d: Sum(rhs),rhsMax =   1.22970405258774E-04  9.00099725337729E-02
 cg2d: Sum(rhs),rhsMax =   1.21991938159571E-04  9.00675947262250E-02
 cg2d: Sum(rhs),rhsMax =   1.21003343867184E-04  9.01251928741200E-02
 cg2d: Sum(rhs),rhsMax =   1.20004779064440E-04  9.01827669386408E-02
 cg2d: Sum(rhs),rhsMax =   1.18996399602696E-04  9.02403168810146E-02
 cg2d: Sum(rhs),rhsMax =   1.17978359991895E-04  9.02978426625146E-02
 cg2d: Sum(rhs),rhsMax =   1.16950814175060E-04  9.03553442444580E-02
 cg2d: Sum(rhs),rhsMax =   1.15913914904911E-04  9.04128215882089E-02
 cg2d: Sum(rhs),rhsMax =   1.14867813555608E-04  9.04702746551756E-02
 cg2d: Sum(rhs),rhsMax =   1.13812660862566E-04  9.05277034068113E-02
 cg2d: Sum(rhs),rhsMax =   1.12748606168887E-04  9.05851078046167E-02
 cg2d: Sum(rhs),rhsMax =   1.11675797777516E-04  9.06424878101357E-02
 cg2d: Sum(rhs),rhsMax =   1.10594382587115E-04  9.06998433849580E-02
 cg2d: Sum(rhs),rhsMax =   1.09504506803524E-04  9.07571744907231E-02
 cg2d: Sum(rhs),rhsMax =   1.08460454686113E-04  9.08144811565428E-02
 cg2d: Sum(rhs),rhsMax =   1.07408891177359E-04  9.08717632321368E-02
 cg2d: Sum(rhs),rhsMax =   1.06349953931785E-04  9.09290207026411E-02
 cg2d: Sum(rhs),rhsMax =   1.05283787009273E-04  9.09862535498338E-02
 cg2d: Sum(rhs),rhsMax =   1.04210527652870E-04  9.10434617378261E-02
 cg2d: Sum(rhs),rhsMax =   1.03130311224381E-04  9.11006452282101E-02
 cg2d: Sum(rhs),rhsMax =   1.02043270130201E-04  9.11578039826604E-02
 cg2d: Sum(rhs),rhsMax =   1.00949535521687E-04  9.12149379630281E-02
 cg2d: Sum(rhs),rhsMax =   9.98492371272822E-05  9.12720471312107E-02
 cg2d: Sum(rhs),rhsMax =   9.87425038462570E-05  9.13291314491791E-02
 cg2d: Sum(rhs),rhsMax =   9.76294639853797E-05  9.13861908790302E-02
 cg2d: Sum(rhs),rhsMax =   9.65102440697758E-05  9.14432253829865E-02
 cg2d: Sum(rhs),rhsMax =   9.53849689875538E-05  9.15002349233450E-02
 cg2d: Sum(rhs),rhsMax =   9.42537623906479E-05  9.15572194624325E-02
 cg2d: Sum(rhs),rhsMax =   9.31167462668078E-05  9.16141789625904E-02
 cg2d: Sum(rhs),rhsMax =   9.19740410243088E-05  9.16711133861853E-02
 cg2d: Sum(rhs),rhsMax =   9.08257657777304E-05  9.17280226956226E-02
 cg2d: Sum(rhs),rhsMax =   8.96720381848345E-05  9.17849068533573E-02
 cg2d: Sum(rhs),rhsMax =   8.85129745141974E-05  9.18417658219050E-02
 cg2d: Sum(rhs),rhsMax =   8.73486896106820E-05  9.18985995638279E-02
 cg2d: Sum(rhs),rhsMax =   8.61792967996981E-05  9.19554080417452E-02
 cg2d: Sum(rhs),rhsMax =   8.50049083085253E-05  9.20121912183168E-02
 cg2d: Sum(rhs),rhsMax =   8.38256342973586E-05  9.20689490562513E-02
 cg2d: Sum(rhs),rhsMax =   8.26415841339214E-05  9.21256815183030E-02
 cg2d: Sum(rhs),rhsMax =   8.14528653861144E-05  9.21823885672692E-02
 cg2d: Sum(rhs),rhsMax =   8.02595844364498E-05  9.22390701659987E-02
 cg2d: Sum(rhs),rhsMax =   7.90618461100484E-05  9.22957262773816E-02
 cg2d: Sum(rhs),rhsMax =   7.78597540285302E-05  9.23523568643637E-02
 cg2d: Sum(rhs),rhsMax =   7.66534103467682E-05  9.24089618899316E-02
 cg2d: Sum(rhs),rhsMax =   7.54429157299053E-05  9.24655413171242E-02
 cg2d: Sum(rhs),rhsMax =   7.42283696884491E-05  9.25220951090277E-02
(PID.TID 0000.0001)      cg2d_init_res =   4.54165010254860E-03
(PID.TID 0000.0001)      cg2d_iters(min,last) =      -1      77
(PID.TID 0000.0001)      cg2d_last_res =   8.78349739801361E-08
(PID.TID 0000.0001) // =======================================================
(PID.TID 0000.0001) // Begin MONITOR dynamic field statistics
(PID.TID 0000.0001) // =======================================================
(PID.TID 0000.0001) %MON time_tsnumber                =                  1584
(PID.TID 0000.0001) %MON time_secondsf                =   1.9008000000000E+06
(PID.TID 0000.0001) %MON dynstat_eta_max              =   4.9634960405803E-02
(PID.TID 0000.0001) %MON dynstat_eta_min              =  -2.4787588493654E-02
(PID.TID 0000.0001) %MON dynstat_eta_mean             =  -3.3795766426759E-08
(PID.TID 0000.0001) %MON dynstat_eta_sd               =   2.0396939199257E-02
(PID.TID 0000.0001) %MON dynstat_eta_del2             =   7.4125219566958E-06
(PID.TID 0000.0001) %MON dynstat_uvel_max             =   1.8444725069471E-02
(PID.TID 0000.0001) %MON dynstat_uvel_min             =  -1.7565788794659E-02
(PID.TID 0000.0001) %MON dynstat_uvel_mean            =  -3.9923423636825E-07
(PID.TID 0000.0001) %MON dynstat_uvel_sd              =   7.5472470386806E-03
(PID.TID 0000.0001) %MON dynstat_uvel_del2            =   9.1529981899056E-06
(PID.TID 0000.0001) %MON dynstat_vvel_max             =   5.4142363139575E-02
(PID.TID 0000.0001) %MON dynstat_vvel_min             =  -9.9778940952233E-03
(PID.TID 0000.0001) %MON dynstat_vvel_mean            =   1.7435812792647E-08
(PID.TID 0000.0001) %MON dynstat_vvel_sd              =   1.1361410596571E-02
(PID.TID 0000.0001) %MON dynstat_vvel_del2            =   3.3308259818409E-05
(PID.TID 0000.0001) %MON dynstat_wvel_max             =   2.9457226689556E-08
(PID.TID 0000.0001) %MON dynstat_wvel_min             =  -1.3657800109941E-08
(PID.TID 0000.0001) %MON dynstat_wvel_mean            =  -2.8224740668116E-21
(PID.TID 0000.0001) %MON dynstat_wvel_sd              =   9.5341401422064E-09
(PID.TID 0000.0001) %MON dynstat_wvel_del2            =   5.7249351026014E-12
(PID.TID 0000.0001) %MON dynstat_theta_max            =   2.0000000000000E+01
(PID.TID 0000.0001) %MON dynstat_theta_min            =   2.0000000000000E+01
(PID.TID 0000.0001) %MON dynstat_theta_mean           =   2.0000000000000E+01
(PID.TID 0000.0001) %MON dynstat_theta_sd             =   0.0000000000000E+00
(PID.TID 0000.0001) %MON dynstat_theta_del2           =   0.0000000000000E+00
(PID.TID 0000.0001) %MON dynstat_salt_max             =   3.0000000000000E+01
(PID.TID 0000.0001) %MON dynstat_salt_min             =   3.0000000000000E+01
(PID.TID 0000.0001) %MON dynstat_salt_mean            =   3.0000000000000E+01
(PID.TID 0000.0001) %MON dynstat_salt_sd              =   0.0000000000000E+00
(PID.TID 0000.0001) %MON dynstat_salt_del2            =   0.0000000000000E+00
(PID.TID 0000.0001) %MON trAdv_CFL_u_max              =   1.1062011983259E-03
(PID.TID 0000.0001) %MON trAdv_CFL_v_max              =   3.2463135354885E-03
(PID.TID 0000.0001) %MON trAdv_CFL_w_max              =   7.0719307009131E-09
(PID.TID 0000.0001) %MON advcfl_uvel_max              =   1.1066835041682E-03
(PID.TID 0000.0001) %MON advcfl_vvel_max              =   3.2485417883745E-03
(PID.TID 0000.0001) %MON advcfl_wvel_max              =   1.4139468810987E-08
(PID.TID 0000.0001) %MON advcfl_W_hf_max              =   0.0000000000000E+00
(PID.TID 0000.0001) %MON pe_b_mean                    =   4.0813046125406E-07
(PID.TID 0000.0001) %MON ke_max                       =   1.4645925393835E-03
(PID.TID 0000.0001) %MON ke_mean                      =   9.1470939476829E-05
(PID.TID 0000.0001) %MON ke_vol                       =   7.2000000000000E+15
(PID.TID 0000.0001) %MON vort_r_min                   =  -4.3413200593226E-07
(PID.TID 0000.0001) %MON vort_r_max                   =   1.6375565947374E-06
(PID.TID 0000.0001) %MON vort_a_mean                  =   1.0600000000000E-04
(PID.TID 0000.0001) %MON vort_a_sd                    =   3.5237220617836E-06
(PID.TID 0000.0001) %MON vort_p_mean                  =   1.1130000000000E-04
(PID.TID 0000.0001) %MON vort_p_sd                    =   4.1105216637959E-05
(PID.TID 0000.0001) %MON surfExpan_theta_mean         =  -5.6452620356140E-20
(PID.TID 0000.0001) %MON surfExpan_salt_mean          =  -8.4678614737438E-20
(PID.TID 0000.0001) // =======================================================
(PID.TID 0000.0001) // End MONITOR dynamic field statistics
(PID.TID 0000.0001) // =======================================================
 cg2d: Sum(rhs),rhsMax =   7.30098704202261E-05  9.25786232287734E-02
 cg2d: Sum(rhs),rhsMax =   7.17875144367747E-05  9.26351256395413E-02
 cg2d: Sum(rhs),rhsMax =   7.05613972363708E-05  9.26916023045632E-02
 cg2d: Sum(rhs),rhsMax =   6.93316130119370E-05  9.27480531871130E-02
 cg2d: Sum(rhs),rhsMax =   6.80982544771780E-05  9.28044782505154E-02
 cg2d: Sum(rhs),rhsMax =   6.68614129944716E-05  9.28608774581437E-02
 cg2d: Sum(rhs),rhsMax =   6.56211791483265E-05  9.29172507734180E-02
 cg2d: Sum(rhs),rhsMax =   6.43776417152617E-05  9.29735981598065E-02
 cg2d: Sum(rhs),rhsMax =   6.31308884345375E-05  9.30299195808257E-02
 cg2d: Sum(rhs),rhsMax =   6.18810057760894E-05  9.30862150000417E-02
 cg2d: Sum(rhs),rhsMax =   6.06280790765128E-05  9.31424843810671E-02
 cg2d: Sum(rhs),rhsMax =   5.93721921923872E-05  9.31987276875655E-02
 cg2d: Sum(rhs),rhsMax =   5.81134281846165E-05  9.32549448832445E-02
 cg2d: Sum(rhs),rhsMax =   5.68518688535951E-05  9.33111359318655E-02
 cg2d: Sum(rhs),rhsMax =   5.55875945739432E-05  9.33673007972358E-02
 cg2d: Sum(rhs),rhsMax =   5.43206846593831E-05  9.34234394432097E-02
 cg2d: Sum(rhs),rhsMax =   5.30512173671800E-05  9.34795518336938E-02
 cg2d: Sum(rhs),rhsMax =   5.17792699209502E-05  9.35356379326405E-02
 cg2d: Sum(rhs),rhsMax =   5.05049181343947E-05  9.35916977040518E-02
 cg2d: Sum(rhs),rhsMax =   4.92282370755191E-05  9.36477311119810E-02
 cg2d: Sum(rhs),rhsMax =   4.79493006368230E-05  9.37037381205263E-02
 cg2d: Sum(rhs),rhsMax =   4.66681814709283E-05  9.37597186938370E-02
 cg2d: Sum(rhs),rhsMax =   4.53849512718207E-05  9.38156727961135E-02
 cg2d: Sum(rhs),rhsMax =   4.40996809202929E-05  9.38716003915993E-02
 cg2d: Sum(rhs),rhsMax =   4.28124399682421E-05  9.39275014445942E-02
 cg2d: Sum(rhs),rhsMax =   4.15232972560547E-05  9.39833759194426E-02
 cg2d: Sum(rhs),rhsMax =   4.02323202021940E-05  9.40392237805388E-02
 cg2d: Sum(rhs),rhsMax =   3.89395756569804E-05  9.40950449923285E-02
 cg2d: Sum(rhs),rhsMax =   3.76451294809375E-05  9.41508395193044E-02
 cg2d: Sum(rhs),rhsMax =   3.63490464866303E-05  9.42066073260103E-02
 cg2d: Sum(rhs),rhsMax =   3.50513903571922E-05  9.42623483770377E-02
 cg2d: Sum(rhs),rhsMax =   3.37522243405095E-05  9.43180626370303E-02
 cg2d: Sum(rhs),rhsMax =   3.24516103320256E-05  9.43737500706796E-02
 cg2d: Sum(rhs),rhsMax =   3.11496095969678E-05  9.44294106427259E-02
 cg2d: Sum(rhs),rhsMax =   2.99303866363627E-05  9.44850442321956E-02
 cg2d: Sum(rhs),rhsMax =   2.87103202820955E-05  9.45406509827611E-02
 cg2d: Sum(rhs),rhsMax =   2.74894852889326E-05  9.45962307594477E-02
 cg2d: Sum(rhs),rhsMax =   2.62679299546237E-05  9.46517835342550E-02
 cg2d: Sum(rhs),rhsMax =   2.50457071764038E-05  9.47073092734531E-02
 cg2d: Sum(rhs),rhsMax =   2.38228703424385E-05  9.47628079408948E-02
 cg2d: Sum(rhs),rhsMax =   2.25994733905645E-05  9.48182795011426E-02
 cg2d: Sum(rhs),rhsMax =   2.13755694362314E-05  9.48737239193402E-02
 cg2d: Sum(rhs),rhsMax =   2.01512107735058E-05  9.49291411608011E-02
 cg2d: Sum(rhs),rhsMax =   1.89264486602607E-05  9.49845311908363E-02
 cg2d: Sum(rhs),rhsMax =   1.77013333870994E-05  9.50398939747555E-02
 cg2d: Sum(rhs),rhsMax =   1.64759144278565E-05  9.50952294778968E-02
 cg2d: Sum(rhs),rhsMax =   1.52502404137424E-05  9.51505376656452E-02
 cg2d: Sum(rhs),rhsMax =   1.40243596272200E-05  9.52058185034368E-02
 cg2d: Sum(rhs),rhsMax =   1.27983198121434E-05  9.52610719567602E-02
 cg2d: Sum(rhs),rhsMax =   1.15721676716331E-05  9.53162979911596E-02
 cg2d: Sum(rhs),rhsMax =   1.03459494422038E-05  9.53714965722270E-02
 cg2d: Sum(rhs),rhsMax =   9.11971042363326E-06  9.54266676656082E-02
 cg2d: Sum(rhs),rhsMax =   7.89349566391803E-06  9.54818112369997E-02
 cg2d: Sum(rhs),rhsMax =   6.66734916594282E-06  9.55369272521477E-02
 cg2d: Sum(rhs),rhsMax =   5.44131436805255E-06  9.55920156768492E-02
 cg2d: Sum(rhs),rhsMax =   4.21543385645956E-06  9.56470764769531E-02
 cg2d: Sum(rhs),rhsMax =   2.98974992915708E-06  9.57021096183596E-02
 cg2d: Sum(rhs),rhsMax =   1.76430408243416E-06  9.57571150670203E-02
 cg2d: Sum(rhs),rhsMax =   5.39137005489340E-07  9.58120927889358E-02
 cg2d: Sum(rhs),rhsMax =  -6.85711237777276E-07  9.58670427501592E-02
 cg2d: Sum(rhs),rhsMax =  -1.91020088767882E-06  9.59219649167952E-02
 cg2d: Sum(rhs),rhsMax =  -3.13429345414305E-06  9.59768592549970E-02
 cg2d: Sum(rhs),rhsMax =  -4.35795058168625E-06  9.60317257309714E-02
 cg2d: Sum(rhs),rhsMax =  -5.58113501585543E-06  9.60865643109747E-02
 cg2d: Sum(rhs),rhsMax =  -6.80380978249420E-06  9.61413749613163E-02
 cg2d: Sum(rhs),rhsMax =  -8.02593865851034E-06  9.61961576483572E-02
 cg2d: Sum(rhs),rhsMax =  -9.24748633026641E-06  9.62509123385071E-02
 cg2d: Sum(rhs),rhsMax =  -1.04684180024465E-05  9.63056389982316E-02
 cg2d: Sum(rhs),rhsMax =  -1.16886994898733E-05  9.63603375940447E-02
 cg2d: Sum(rhs),rhsMax =  -1.29082975735724E-05  9.64150080925137E-02
 cg2d: Sum(rhs),rhsMax =  -1.41271793024506E-05  9.64696504602555E-02
 cg2d: Sum(rhs),rhsMax =  -1.53453129159500E-05  9.65242646639411E-02
(PID.TID 0000.0001)      cg2d_init_res =   4.27955686026588E-03
(PID.TID 0000.0001)      cg2d_iters(min,last) =      -1      78
(PID.TID 0000.0001)      cg2d_last_res =   9.86870470735363E-08
(PID.TID 0000.0001) // =======================================================
(PID.TID 0000.0001) // Begin MONITOR dynamic field statistics
(PID.TID 0000.0001) // =======================================================
(PID.TID 0000.0001) %MON time_tsnumber                =                  1656
(PID.TID 0000.0001) %MON time_secondsf                =   1.9872000000000E+06
(PID.TID 0000.0001) %MON dynstat_eta_max              =   5.1345374394865E-02
(PID.TID 0000.0001) %MON dynstat_eta_min              =  -2.4759501296352E-02
(PID.TID 0000.0001) %MON dynstat_eta_mean             =   7.9980166638014E-09
(PID.TID 0000.0001) %MON dynstat_eta_sd               =   2.0738101573660E-02
(PID.TID 0000.0001) %MON dynstat_eta_del2             =   7.8610176853046E-06
(PID.TID 0000.0001) %MON dynstat_uvel_max             =   1.8995782964883E-02
(PID.TID 0000.0001) %MON dynstat_uvel_min             =  -1.7932850753090E-02
(PID.TID 0000.0001) %MON dynstat_uvel_mean            =  -3.5930146974470E-07
(PID.TID 0000.0001) %MON dynstat_uvel_sd              =   7.6019013371817E-03
(PID.TID 0000.0001) %MON dynstat_uvel_del2            =   9.1150099122139E-06
(PID.TID 0000.0001) %MON dynstat_vvel_max             =   5.6778923956156E-02
(PID.TID 0000.0001) %MON dynstat_vvel_min             =  -1.0566249227679E-02
(PID.TID 0000.0001) %MON dynstat_vvel_mean            =   2.0144731212869E-08
(PID.TID 0000.0001) %MON dynstat_vvel_sd              =   1.1772615416474E-02
(PID.TID 0000.0001) %MON dynstat_vvel_del2            =   3.5245421184349E-05
(PID.TID 0000.0001) %MON dynstat_wvel_max             =   2.8692461898318E-08
(PID.TID 0000.0001) %MON dynstat_wvel_min             =  -1.4272465309768E-08
(PID.TID 0000.0001) %MON dynstat_wvel_mean            =  -5.6462517426957E-22
(PID.TID 0000.0001) %MON dynstat_wvel_sd              =   9.2911757432653E-09
(PID.TID 0000.0001) %MON dynstat_wvel_del2            =   5.7641855744745E-12
(PID.TID 0000.0001) %MON dynstat_theta_max            =   2.0000000000000E+01
(PID.TID 0000.0001) %MON dynstat_theta_min            =   2.0000000000000E+01
(PID.TID 0000.0001) %MON dynstat_theta_mean           =   2.0000000000000E+01
(PID.TID 0000.0001) %MON dynstat_theta_sd             =   0.0000000000000E+00
(PID.TID 0000.0001) %MON dynstat_theta_del2           =   0.0000000000000E+00
(PID.TID 0000.0001) %MON dynstat_salt_max             =   3.0000000000000E+01
(PID.TID 0000.0001) %MON dynstat_salt_min             =   3.0000000000000E+01
(PID.TID 0000.0001) %MON dynstat_salt_mean            =   3.0000000000000E+01
(PID.TID 0000.0001) %MON dynstat_salt_sd              =   0.0000000000000E+00
(PID.TID 0000.0001) %MON dynstat_salt_del2            =   0.0000000000000E+00
(PID.TID 0000.0001) %MON trAdv_CFL_u_max              =   1.1393104783119E-03
(PID.TID 0000.0001) %MON trAdv_CFL_v_max              =   3.4045700073322E-03
(PID.TID 0000.0001) %MON trAdv_CFL_w_max              =   6.8890518405475E-09
(PID.TID 0000.0001) %MON advcfl_uvel_max              =   1.1397469778930E-03
(PID.TID 0000.0001) %MON advcfl_vvel_max              =   3.4067354373694E-03
(PID.TID 0000.0001) %MON advcfl_wvel_max              =   1.3772381711192E-08
(PID.TID 0000.0001) %MON advcfl_W_hf_max              =   0.0000000000000E+00
(PID.TID 0000.0001) %MON pe_b_mean                    =   4.2189754859881E-07
(PID.TID 0000.0001) %MON ke_max                       =   1.6102991621348E-03
(PID.TID 0000.0001) %MON ke_mean                      =   9.6555160758527E-05
(PID.TID 0000.0001) %MON ke_vol                       =   7.2000000000000E+15
(PID.TID 0000.0001) %MON vort_r_min                   =  -4.6790130471300E-07
(PID.TID 0000.0001) %MON vort_r_max                   =   1.7009741874098E-06
(PID.TID 0000.0001) %MON vort_a_mean                  =   1.0600000000000E-04
(PID.TID 0000.0001) %MON vort_a_sd                    =   3.5242610578518E-06
(PID.TID 0000.0001) %MON vort_p_mean                  =   1.1130000000000E-04
(PID.TID 0000.0001) %MON vort_p_sd                    =   4.1108324661709E-05
(PID.TID 0000.0001) %MON surfExpan_theta_mean         =  -1.1292301661649E-20
(PID.TID 0000.0001) %MON surfExpan_salt_mean          =  -1.6938471612980E-20
(PID.TID 0000.0001) // =======================================================
(PID.TID 0000.0001) // End MONITOR dynamic field statistics
(PID.TID 0000.0001) // =======================================================
 cg2d: Sum(rhs),rhsMax =  -1.65626669128647E-05  9.65788506702922E-02
 cg2d: Sum(rhs),rhsMax =  -1.77792107992954E-05  9.66334084460816E-02
 cg2d: Sum(rhs),rhsMax =  -1.89949149392230E-05  9.66879379581348E-02
 cg2d: Sum(rhs),rhsMax =  -2.02097499846267E-05  9.67424391733294E-02
 cg2d: Sum(rhs),rhsMax =  -2.14236876729997E-05  9.67969120585945E-02
 cg2d: Sum(rhs),rhsMax =  -2.25417574757948E-05  9.68513565954129E-02
 cg2d: Sum(rhs),rhsMax =  -2.36585594824354E-05  9.69057727203925E-02
 cg2d: Sum(rhs),rhsMax =  -2.47741059476014E-05  9.69601604179168E-02
 cg2d: Sum(rhs),rhsMax =  -2.58883839066304E-05  9.70145196564962E-02
 cg2d: Sum(rhs),rhsMax =  -2.70013821585188E-05  9.70688504020460E-02
 cg2d: Sum(rhs),rhsMax =  -2.81130820183155E-05  9.71231526203205E-02
 cg2d: Sum(rhs),rhsMax =  -2.92234609290832E-05  9.71774262780722E-02
 cg2d: Sum(rhs),rhsMax =  -3.03324966795943E-05  9.72316713427826E-02
 cg2d: Sum(rhs),rhsMax =  -3.14401698108379E-05  9.72858877821579E-02
 cg2d: Sum(rhs),rhsMax =  -3.16698818535622E-05  9.73400756375278E-02
 cg2d: Sum(rhs),rhsMax =  -3.18973969918868E-05  9.73942347130497E-02
 cg2d: Sum(rhs),rhsMax =  -3.21227385488218E-05  9.74483650978808E-02
 cg2d: Sum(rhs),rhsMax =  -3.23459740902612E-05  9.75024667449066E-02
 cg2d: Sum(rhs),rhsMax =  -3.25671473132040E-05  9.75565396086260E-02
 cg2d: Sum(rhs),rhsMax =  -3.27862924976528E-05  9.76105836489132E-02
 cg2d: Sum(rhs),rhsMax =  -3.30034407217666E-05  9.76645988304267E-02
 cg2d: Sum(rhs),rhsMax =  -3.32186227473760E-05  9.77185851226783E-02
 cg2d: Sum(rhs),rhsMax =  -3.34318714157542E-05  9.77725424971542E-02
 cg2d: Sum(rhs),rhsMax =  -3.36432220700393E-05  9.78264709245026E-02
 cg2d: Sum(rhs),rhsMax =  -3.38527114497281E-05  9.78803703735385E-02
 cg2d: Sum(rhs),rhsMax =  -3.40603761507657E-05  9.79342408117278E-02
 cg2d: Sum(rhs),rhsMax =  -3.42662524467300E-05  9.79880822061686E-02
 cg2d: Sum(rhs),rhsMax =  -3.44703763690904E-05  9.80418945243001E-02
 cg2d: Sum(rhs),rhsMax =  -3.46727832402170E-05  9.80956777341198E-02
 cg2d: Sum(rhs),rhsMax =  -3.48735087043715E-05  9.81494318040430E-02
 cg2d: Sum(rhs),rhsMax =  -3.50725884593062E-05  9.82031567026468E-02
 cg2d: Sum(rhs),rhsMax =  -3.52700582858800E-05  9.82568523984862E-02
 cg2d: Sum(rhs),rhsMax =  -3.54659541155159E-05  9.83105188600257E-02
 cg2d: Sum(rhs),rhsMax =  -3.56603115751076E-05  9.83641560556786E-02
 cg2d: Sum(rhs),rhsMax =  -3.58531664632414E-05  9.84177639538756E-02
 cg2d: Sum(rhs),rhsMax =  -3.60445548033862E-05  9.84713425231155E-02
 cg2d: Sum(rhs),rhsMax =  -3.62345118571934E-05  9.85248917319898E-02
 cg2d: Sum(rhs),rhsMax =  -3.64230733805732E-05  9.85784115491788E-02
 cg2d: Sum(rhs),rhsMax =  -3.66102748083838E-05  9.86319019434293E-02
 cg2d: Sum(rhs),rhsMax =  -3.67961517375500E-05  9.86853628835440E-02
 cg2d: Sum(rhs),rhsMax =  -3.69807391551683E-05  9.87387943383694E-02
 cg2d: Sum(rhs),rhsMax =  -3.71640726935171E-05  9.87921962767991E-02
 cg2d: Sum(rhs),rhsMax =  -3.73461873797738E-05  9.88455686677716E-02
 cg2d: Sum(rhs),rhsMax =  -3.75271182391675E-05  9.88989114802788E-02
 cg2d: Sum(rhs),rhsMax =  -3.77069004230124E-05  9.89522246833653E-02
 cg2d: Sum(rhs),rhsMax =  -3.78855685503904E-05  9.90055082461310E-02
 cg2d: Sum(rhs),rhsMax =  -3.80631575519139E-05  9.90587621377334E-02
 cg2d: Sum(rhs),rhsMax =  -3.82397018969145E-05  9.91119863273831E-02
 cg2d: Sum(rhs),rhsMax =  -3.84152361970133E-05  9.91651807843468E-02
 cg2d: Sum(rhs),rhsMax =  -3.85897946787311E-05  9.92183454779454E-02
 cg2d: Sum(rhs),rhsMax =  -3.87634116896657E-05  9.92714803775538E-02
 cg2d: Sum(rhs),rhsMax =  -3.89361211859431E-05  9.93245854526015E-02
 cg2d: Sum(rhs),rhsMax =  -3.91079570886497E-05  9.93776606725712E-02
 cg2d: Sum(rhs),rhsMax =  -3.92789532535492E-05  9.94307060070003E-02
 cg2d: Sum(rhs),rhsMax =  -3.94491432715947E-05  9.94837214254798E-02
 cg2d: Sum(rhs),rhsMax =  -3.96185607086479E-05  9.95367068976548E-02
 cg2d: Sum(rhs),rhsMax =  -3.97872386785573E-05  9.95896623932259E-02
 cg2d: Sum(rhs),rhsMax =  -3.99552104326586E-05  9.96425878819464E-02
 cg2d: Sum(rhs),rhsMax =  -4.01225089751382E-05  9.96954833336262E-02
 cg2d: Sum(rhs),rhsMax =  -4.02891671832887E-05  9.97483487181272E-02
 cg2d: Sum(rhs),rhsMax =  -4.04552175735443E-05  9.98011840053700E-02
 cg2d: Sum(rhs),rhsMax =  -4.06206928198500E-05  9.98539891653266E-02
 cg2d: Sum(rhs),rhsMax =  -4.07856250776179E-05  9.99067641680243E-02
 cg2d: Sum(rhs),rhsMax =  -4.09500463118724E-05  9.99595089835461E-02
 cg2d: Sum(rhs),rhsMax =  -4.11139884591953E-05  1.00012223582029E-01
 cg2d: Sum(rhs),rhsMax =  -4.12774834736684E-05  1.00064907933665E-01
 cg2d: Sum(rhs),rhsMax =  -4.14405626481974E-05  1.00117562008700E-01
 cg2d: Sum(rhs),rhsMax =  -4.16032573546943E-05  1.00170185777438E-01
 cg2d: Sum(rhs),rhsMax =  -4.17655987102177E-05  1.00222779210233E-01
 cg2d: Sum(rhs),rhsMax =  -4.19276173477950E-05  1.00275342277497E-01
 cg2d: Sum(rhs),rhsMax =  -4.20893442426590E-05  1.00327874949698E-01
 cg2d: Sum(rhs),rhsMax =  -4.22508095049307E-05  1.00380377197357E-01
(PID.TID 0000.0001)      cg2d_init_res =   4.03612630598289E-03
(PID.TID 0000.0001)      cg2d_iters(min,last) =      -1      84
(PID.TID 0000.0001)      cg2d_last_res =   7.93652626644216E-08
(PID.TID 0000.0001) // =======================================================
(PID.TID 0000.0001) // Begin MONITOR dynamic field statistics
(PID.TID 0000.0001) // =======================================================
(PID.TID 0000.0001) %MON time_tsnumber                =                  1728
(PID.TID 0000.0001) %MON time_secondsf                =   2.0736000000000E+06
(PID.TID 0000.0001) %MON dynstat_eta_max              =   5.3045429543547E-02
(PID.TID 0000.0001) %MON dynstat_eta_min              =  -2.4656567686733E-02
(PID.TID 0000.0001) %MON dynstat_eta_mean             =   2.1297811829327E-08
(PID.TID 0000.0001) %MON dynstat_eta_sd               =   2.1018283301918E-02
(PID.TID 0000.0001) %MON dynstat_eta_del2             =   8.3098209577190E-06
(PID.TID 0000.0001) %MON dynstat_uvel_max             =   1.9491007676261E-02
(PID.TID 0000.0001) %MON dynstat_uvel_min             =  -1.8261654939973E-02
(PID.TID 0000.0001) %MON dynstat_uvel_mean            =  -3.1666106287495E-07
(PID.TID 0000.0001) %MON dynstat_uvel_sd              =   7.6344642297074E-03
(PID.TID 0000.0001) %MON dynstat_uvel_del2            =   9.0492197416060E-06
(PID.TID 0000.0001) %MON dynstat_vvel_max             =   5.9334906648681E-02
(PID.TID 0000.0001) %MON dynstat_vvel_min             =  -1.1187294139709E-02
(PID.TID 0000.0001) %MON dynstat_vvel_mean            =   2.2627977987849E-08
(PID.TID 0000.0001) %MON dynstat_vvel_sd              =   1.2165463891853E-02
(PID.TID 0000.0001) %MON dynstat_vvel_del2            =   3.7160741324234E-05
(PID.TID 0000.0001) %MON dynstat_wvel_max             =   2.7838943655370E-08
(PID.TID 0000.0001) %MON dynstat_wvel_min             =  -1.4935942815500E-08
(PID.TID 0000.0001) %MON dynstat_wvel_mean            =   2.7850754551966E-21
(PID.TID 0000.0001) %MON dynstat_wvel_sd              =   9.0725293858105E-09
(PID.TID 0000.0001) %MON dynstat_wvel_del2            =   5.7932568190318E-12
(PID.TID 0000.0001) %MON dynstat_theta_max            =   2.0000000000000E+01
(PID.TID 0000.0001) %MON dynstat_theta_min            =   2.0000000000000E+01
(PID.TID 0000.0001) %MON dynstat_theta_mean           =   2.0000000000000E+01
(PID.TID 0000.0001) %MON dynstat_theta_sd             =   0.0000000000000E+00
(PID.TID 0000.0001) %MON dynstat_theta_del2           =   0.0000000000000E+00
(PID.TID 0000.0001) %MON dynstat_salt_max             =   3.0000000000000E+01
(PID.TID 0000.0001) %MON dynstat_salt_min             =   3.0000000000000E+01
(PID.TID 0000.0001) %MON dynstat_salt_mean            =   3.0000000000000E+01
(PID.TID 0000.0001) %MON dynstat_salt_sd              =   0.0000000000000E+00
(PID.TID 0000.0001) %MON dynstat_salt_del2            =   0.0000000000000E+00
(PID.TID 0000.0001) %MON trAdv_CFL_u_max              =   1.1690711211334E-03
(PID.TID 0000.0001) %MON trAdv_CFL_v_max              =   3.5580002167650E-03
(PID.TID 0000.0001) %MON trAdv_CFL_w_max              =   6.6838105858304E-09
(PID.TID 0000.0001) %MON advcfl_uvel_max              =   1.1694604605757E-03
(PID.TID 0000.0001) %MON advcfl_vvel_max              =   3.5600943989209E-03
(PID.TID 0000.0001) %MON advcfl_wvel_max              =   1.3362692954578E-08
(PID.TID 0000.0001) %MON advcfl_W_hf_max              =   0.0000000000000E+00
(PID.TID 0000.0001) %MON pe_b_mean                    =   4.3337463653389E-07
(PID.TID 0000.0001) %MON ke_max                       =   1.7580666982091E-03
(PID.TID 0000.0001) %MON ke_mean                      =   1.0142274830740E-04
(PID.TID 0000.0001) %MON ke_vol                       =   7.2000000000000E+15
(PID.TID 0000.0001) %MON vort_r_min                   =  -5.0228984291091E-07
(PID.TID 0000.0001) %MON vort_r_max                   =   1.7615491910610E-06
(PID.TID 0000.0001) %MON vort_a_mean                  =   1.0600000000000E-04
(PID.TID 0000.0001) %MON vort_a_sd                    =   3.5248110692723E-06
(PID.TID 0000.0001) %MON vort_p_mean                  =   1.1130000000000E-04
(PID.TID 0000.0001) %MON vort_p_sd                    =   4.1111252801006E-05
(PID.TID 0000.0001) %MON surfExpan_theta_mean         =   5.5697471326413E-20
(PID.TID 0000.0001) %MON surfExpan_salt_mean          =   8.3546246464215E-20
(PID.TID 0000.0001) // =======================================================
(PID.TID 0000.0001) // End MONITOR dynamic field statistics
(PID.TID 0000.0001) // =======================================================
 cg2d: Sum(rhs),rhsMax =  -4.24120435326136E-05  1.00432848991050E-01
 cg2d: Sum(rhs),rhsMax =  -4.25730761821844E-05  1.00485290301410E-01
 cg2d: Sum(rhs),rhsMax =  -4.27339371443843E-05  1.00537701099124E-01
 cg2d: Sum(rhs),rhsMax =  -4.28946558213902E-05  1.00590081354935E-01
 cg2d: Sum(rhs),rhsMax =  -4.30552612192183E-05  1.00642431039639E-01
 cg2d: Sum(rhs),rhsMax =  -4.32157825674684E-05  1.00694750124091E-01
 cg2d: Sum(rhs),rhsMax =  -4.33762480211066E-05  1.00747038579198E-01
 cg2d: Sum(rhs),rhsMax =  -4.35366863597731E-05  1.00799296375923E-01
 cg2d: Sum(rhs),rhsMax =  -4.36971252790290E-05  1.00851523485288E-01
 cg2d: Sum(rhs),rhsMax =  -4.38575925823265E-05  1.00903719878365E-01
 cg2d: Sum(rhs),rhsMax =  -4.40181156071244E-05  1.00955885526286E-01
 cg2d: Sum(rhs),rhsMax =  -4.41787213639987E-05  1.01008020400236E-01
 cg2d: Sum(rhs),rhsMax =  -4.43394368019202E-05  1.01060124471456E-01
 cg2d: Sum(rhs),rhsMax =  -4.45002881373276E-05  1.01112197711244E-01
 cg2d: Sum(rhs),rhsMax =  -4.46613015978471E-05  1.01164240090952E-01
 cg2d: Sum(rhs),rhsMax =  -4.48225026250370E-05  1.01216251581989E-01
 cg2d: Sum(rhs),rhsMax =  -4.49839167764934E-05  1.01268232155819E-01
 cg2d: Sum(rhs),rhsMax =  -4.51455689532664E-05  1.01320181783963E-01
 cg2d: Sum(rhs),rhsMax =  -4.53074837074227E-05  1.01372100437995E-01
 cg2d: Sum(rhs),rhsMax =  -4.54696853043560E-05  1.01423988089550E-01
 cg2d: Sum(rhs),rhsMax =  -4.56321975491128E-05  1.01475844710311E-01
 cg2d: Sum(rhs),rhsMax =  -4.57950437618895E-05  1.01527670272027E-01
 cg2d: Sum(rhs),rhsMax =  -4.59582470198512E-05  1.01579464746493E-01
 cg2d: Sum(rhs),rhsMax =  -4.61218298688833E-05  1.01631228105569E-01
 cg2d: Sum(rhs),rhsMax =  -4.62858145695196E-05  1.01682960321164E-01
 cg2d: Sum(rhs),rhsMax =  -4.64502228097428E-05  1.01734661365247E-01
 cg2d: Sum(rhs),rhsMax =  -4.66150758416974E-05  1.01786331209842E-01
 cg2d: Sum(rhs),rhsMax =  -4.67803944841135E-05  1.01837969827031E-01
 cg2d: Sum(rhs),rhsMax =  -4.69461993422154E-05  1.01889577188948E-01
 cg2d: Sum(rhs),rhsMax =  -4.71125103526371E-05  1.01941153267788E-01
 cg2d: Sum(rhs),rhsMax =  -4.72793470856110E-05  1.01992698035799E-01
 cg2d: Sum(rhs),rhsMax =  -4.74467285086419E-05  1.02044211465288E-01
 cg2d: Sum(rhs),rhsMax =  -4.76146733564744E-05  1.02095693528615E-01
 cg2d: Sum(rhs),rhsMax =  -4.77831997621643E-05  1.02147144198200E-01
 cg2d: Sum(rhs),rhsMax =  -4.79523253466615E-05  1.02198563446518E-01
 cg2d: Sum(rhs),rhsMax =  -4.81220675392982E-05  1.02249951246100E-01
 cg2d: Sum(rhs),rhsMax =  -4.82924428822796E-05  1.02301307569534E-01
 cg2d: Sum(rhs),rhsMax =  -4.84634677301761E-05  1.02352632389464E-01
 cg2d: Sum(rhs),rhsMax =  -4.86351580305695E-05  1.02403925678593E-01
 cg2d: Sum(rhs),rhsMax =  -4.88075289972380E-05  1.02455187409677E-01
 cg2d: Sum(rhs),rhsMax =  -4.89805957333868E-05  1.02506417555531E-01
 cg2d: Sum(rhs),rhsMax =  -4.91543723415786E-05  1.02557616089028E-01
 cg2d: Sum(rhs),rhsMax =  -4.93288729480276E-05  1.02608782983093E-01
 cg2d: Sum(rhs),rhsMax =  -4.95041110502095E-05  1.02659918210713E-01
 cg2d: Sum(rhs),rhsMax =  -4.96800996081202E-05  1.02711021744929E-01
 cg2d: Sum(rhs),rhsMax =  -4.98568511245120E-05  1.02762093558839E-01
 cg2d: Sum(rhs),rhsMax =  -5.00343778151273E-05  1.02813133625600E-01
 cg2d: Sum(rhs),rhsMax =  -5.02126911923785E-05  1.02864141918424E-01
 cg2d: Sum(rhs),rhsMax =  -5.03918024513314E-05  1.02915118410579E-01
 cg2d: Sum(rhs),rhsMax =  -5.05717222313642E-05  1.02966063075393E-01
 cg2d: Sum(rhs),rhsMax =  -5.07524608521544E-05  1.03016975886248E-01
 cg2d: Sum(rhs),rhsMax =  -5.09340279240805E-05  1.03067856816585E-01
 cg2d: Sum(rhs),rhsMax =  -5.11164328903524E-05  1.03118705839902E-01
 cg2d: Sum(rhs),rhsMax =  -5.12996847489861E-05  1.03169522929753E-01
 cg2d: Sum(rhs),rhsMax =  -5.14837917872761E-05  1.03220308059751E-01
 cg2d: Sum(rhs),rhsMax =  -5.16687621772705E-05  1.03271061203564E-01
 cg2d: Sum(rhs),rhsMax =  -5.18546034006286E-05  1.03321782334919E-01
 cg2d: Sum(rhs),rhsMax =  -5.20413225623892E-05  1.03372471427600E-01
 cg2d: Sum(rhs),rhsMax =  -5.22289264184590E-05  1.03423128455447E-01
 cg2d: Sum(rhs),rhsMax =  -5.24174213434939E-05  1.03473753392359E-01
 cg2d: Sum(rhs),rhsMax =  -5.26068132811128E-05  1.03524346212292E-01
 cg2d: Sum(rhs),rhsMax =  -5.27971076384800E-05  1.03574906889257E-01
 cg2d: Sum(rhs),rhsMax =  -5.29883095893840E-05  1.03625435397328E-01
 cg2d: Sum(rhs),rhsMax =  -5.31804236783649E-05  1.03675931710629E-01
 cg2d: Sum(rhs),rhsMax =  -5.33734544468107E-05  1.03726395803349E-01
 cg2d: Sum(rhs),rhsMax =  -5.35674056532220E-05  1.03776827649728E-01
 cg2d: Sum(rhs),rhsMax =  -5.37622809295042E-05  1.03827227224069E-01
 cg2d: Sum(rhs),rhsMax =  -5.39580833439877E-05  1.03877594500729E-01
 cg2d: Sum(rhs),rhsMax =  -5.41548157825828E-05  1.03927929454125E-01
 cg2d: Sum(rhs),rhsMax =  -5.43524807078664E-05  1.03978232058729E-01
 cg2d: Sum(rhs),rhsMax =  -5.45510800767524E-05  1.04028502289071E-01
 cg2d: Sum(rhs),rhsMax =  -5.47506158998859E-05  1.04078740119744E-01
(PID.TID 0000.0001)      cg2d_init_res =   3.80970957625995E-03
(PID.TID 0000.0001)      cg2d_iters(min,last) =      -1      84
(PID.TID 0000.0001)      cg2d_last_res =   7.81697682331297E-08
(PID.TID 0000.0001) // =======================================================
(PID.TID 0000.0001) // Begin MONITOR dynamic field statistics
(PID.TID 0000.0001) // =======================================================
(PID.TID 0000.0001) %MON time_tsnumber                =                  1800
(PID.TID 0000.0001) %MON time_secondsf                =   2.1600000000000E+06
(PID.TID 0000.0001) %MON dynstat_eta_max              =   5.4606895302306E-02
(PID.TID 0000.0001) %MON dynstat_eta_min              =  -2.4486426882712E-02
(PID.TID 0000.0001) %MON dynstat_eta_mean             =   2.8609994914301E-08
(PID.TID 0000.0001) %MON dynstat_eta_sd               =   2.1238269445032E-02
(PID.TID 0000.0001) %MON dynstat_eta_del2             =   8.7575676245370E-06
(PID.TID 0000.0001) %MON dynstat_uvel_max             =   1.9980427884629E-02
(PID.TID 0000.0001) %MON dynstat_uvel_min             =  -1.8519542617908E-02
(PID.TID 0000.0001) %MON dynstat_uvel_mean            =  -2.7188564197967E-07
(PID.TID 0000.0001) %MON dynstat_uvel_sd              =   7.6463887811740E-03
(PID.TID 0000.0001) %MON dynstat_uvel_del2            =   8.9595984368292E-06
(PID.TID 0000.0001) %MON dynstat_vvel_max             =   6.1800612680638E-02
(PID.TID 0000.0001) %MON dynstat_vvel_min             =  -1.1840586215569E-02
(PID.TID 0000.0001) %MON dynstat_vvel_mean            =   2.4858995756968E-08
(PID.TID 0000.0001) %MON dynstat_vvel_sd              =   1.2539064451418E-02
(PID.TID 0000.0001) %MON dynstat_vvel_del2            =   3.9047216752400E-05
(PID.TID 0000.0001) %MON dynstat_wvel_max             =   2.7038374356925E-08
(PID.TID 0000.0001) %MON dynstat_wvel_min             =  -1.5657752439438E-08
(PID.TID 0000.0001) %MON dynstat_wvel_mean            =  -3.2854097753443E-21
(PID.TID 0000.0001) %MON dynstat_wvel_sd              =   8.8801585265205E-09
(PID.TID 0000.0001) %MON dynstat_wvel_del2            =   5.8060589842119E-12
(PID.TID 0000.0001) %MON dynstat_theta_max            =   2.0000000000000E+01
(PID.TID 0000.0001) %MON dynstat_theta_min            =   2.0000000000000E+01
(PID.TID 0000.0001) %MON dynstat_theta_mean           =   2.0000000000000E+01
(PID.TID 0000.0001) %MON dynstat_theta_sd             =   0.0000000000000E+00
(PID.TID 0000.0001) %MON dynstat_theta_del2           =   0.0000000000000E+00
(PID.TID 0000.0001) %MON dynstat_salt_max             =   3.0000000000000E+01
(PID.TID 0000.0001) %MON dynstat_salt_min             =   3.0000000000000E+01
(PID.TID 0000.0001) %MON dynstat_salt_mean            =   3.0000000000000E+01
(PID.TID 0000.0001) %MON dynstat_salt_sd              =   0.0000000000000E+00
(PID.TID 0000.0001) %MON dynstat_salt_del2            =   0.0000000000000E+00
(PID.TID 0000.0001) %MON trAdv_CFL_u_max              =   1.1984251671295E-03
(PID.TID 0000.0001) %MON trAdv_CFL_v_max              =   3.7060215648995E-03
(PID.TID 0000.0001) %MON trAdv_CFL_w_max              =   6.4921199142002E-09
(PID.TID 0000.0001) %MON advcfl_uvel_max              =   1.1988256730777E-03
(PID.TID 0000.0001) %MON advcfl_vvel_max              =   3.7080367608383E-03
(PID.TID 0000.0001) %MON advcfl_wvel_max              =   1.2978419691324E-08
(PID.TID 0000.0001) %MON advcfl_W_hf_max              =   0.0000000000000E+00
(PID.TID 0000.0001) %MON pe_b_mean                    =   4.4249387132921E-07
(PID.TID 0000.0001) %MON ke_max                       =   1.9072713936006E-03
(PID.TID 0000.0001) %MON ke_mean                      =   1.0605023773558E-04
(PID.TID 0000.0001) %MON ke_vol                       =   7.2000000000000E+15
(PID.TID 0000.0001) %MON vort_r_min                   =  -5.3718315067573E-07
(PID.TID 0000.0001) %MON vort_r_max                   =   1.8191174145944E-06
(PID.TID 0000.0001) %MON vort_a_mean                  =   1.0600000000000E-04
(PID.TID 0000.0001) %MON vort_a_sd                    =   3.5253689323818E-06
(PID.TID 0000.0001) %MON vort_p_mean                  =   1.1130000000000E-04
(PID.TID 0000.0001) %MON vort_p_sd                    =   4.1114010628960E-05
(PID.TID 0000.0001) %MON surfExpan_theta_mean         =  -6.5709097422465E-20
(PID.TID 0000.0001) %MON surfExpan_salt_mean          =  -9.8562382946612E-20
(PID.TID 0000.0001) // =======================================================
(PID.TID 0000.0001) // End MONITOR dynamic field statistics
(PID.TID 0000.0001) // =======================================================
 cg2d: Sum(rhs),rhsMax =  -5.49510893028179E-05  1.04128945525390E-01
 cg2d: Sum(rhs),rhsMax =  -5.51525013823429E-05  1.04179118480717E-01
 cg2d: Sum(rhs),rhsMax =  -5.53548529623558E-05  1.04229258960485E-01
 cg2d: Sum(rhs),rhsMax =  -5.55581443869250E-05  1.04279366939516E-01
 cg2d: Sum(rhs),rhsMax =  -5.57623757890431E-05  1.04329442392686E-01
 cg2d: Sum(rhs),rhsMax =  -5.59675469192656E-05  1.04379485294931E-01
 cg2d: Sum(rhs),rhsMax =  -5.61736572761463E-05  1.04429495621246E-01
 cg2d: Sum(rhs),rhsMax =  -5.63807060382608E-05  1.04479473346682E-01
 cg2d: Sum(rhs),rhsMax =  -5.65886920433512E-05  1.04529418446349E-01
 cg2d: Sum(rhs),rhsMax =  -5.67976140157106E-05  1.04579330895414E-01
 cg2d: Sum(rhs),rhsMax =  -5.70074700135589E-05  1.04629210669103E-01
 cg2d: Sum(rhs),rhsMax =  -5.72182583847471E-05  1.04679057742701E-01
 cg2d: Sum(rhs),rhsMax =  -5.74299766707108E-05  1.04728872091549E-01
 cg2d: Sum(rhs),rhsMax =  -5.76426223609008E-05  1.04778653691047E-01
 cg2d: Sum(rhs),rhsMax =  -5.78561930061824E-05  1.04828402516653E-01
 cg2d: Sum(rhs),rhsMax =  -5.80706853904305E-05  1.04878118543884E-01
 cg2d: Sum(rhs),rhsMax =  -5.82860963774939E-05  1.04927801748316E-01
 cg2d: Sum(rhs),rhsMax =  -5.85024223320064E-05  1.04977452105580E-01
 cg2d: Sum(rhs),rhsMax =  -5.87196596850900E-05  1.05027069591367E-01
 cg2d: Sum(rhs),rhsMax =  -5.89378044775022E-05  1.05076654181428E-01
 cg2d: Sum(rhs),rhsMax =  -5.91568525425863E-05  1.05126205851570E-01
 cg2d: Sum(rhs),rhsMax =  -5.93767994574220E-05  1.05175724577659E-01
 cg2d: Sum(rhs),rhsMax =  -5.95976406310723E-05  1.05225210335621E-01
 cg2d: Sum(rhs),rhsMax =  -5.98193713576053E-05  1.05274663101437E-01
 cg2d: Sum(rhs),rhsMax =  -6.00419866298753E-05  1.05324082851150E-01
 cg2d: Sum(rhs),rhsMax =  -6.02654812217676E-05  1.05373469560859E-01
 cg2d: Sum(rhs),rhsMax =  -6.04898498488011E-05  1.05422823206723E-01
 cg2d: Sum(rhs),rhsMax =  -6.07150868415906E-05  1.05472143764959E-01
 cg2d: Sum(rhs),rhsMax =  -6.09411865242788E-05  1.05521431211842E-01
 cg2d: Sum(rhs),rhsMax =  -6.11681430489047E-05  1.05570685523706E-01
 cg2d: Sum(rhs),rhsMax =  -6.13959502357864E-05  1.05619906676946E-01
 cg2d: Sum(rhs),rhsMax =  -6.16246019139368E-05  1.05669094648009E-01
 cg2d: Sum(rhs),rhsMax =  -6.18540916974952E-05  1.05718249413409E-01
 cg2d: Sum(rhs),rhsMax =  -6.20844129782649E-05  1.05767370949712E-01
 cg2d: Sum(rhs),rhsMax =  -6.23155591176587E-05  1.05816459233547E-01
 cg2d: Sum(rhs),rhsMax =  -6.25475232350348E-05  1.05865514241600E-01
 cg2d: Sum(rhs),rhsMax =  -6.27802983415070E-05  1.05914535950614E-01
 cg2d: Sum(rhs),rhsMax =  -6.30138772905594E-05  1.05963524337395E-01
 cg2d: Sum(rhs),rhsMax =  -6.32482528127240E-05  1.06012479378804E-01
 cg2d: Sum(rhs),rhsMax =  -6.34834176347207E-05  1.06061401051764E-01
 cg2d: Sum(rhs),rhsMax =  -6.37193641946469E-05  1.06110289333253E-01
 cg2d: Sum(rhs),rhsMax =  -6.39560846918937E-05  1.06159144200310E-01
 cg2d: Sum(rhs),rhsMax =  -6.41935714618741E-05  1.06207965630036E-01
 cg2d: Sum(rhs),rhsMax =  -6.44318168983122E-05  1.06256753599584E-01
 cg2d: Sum(rhs),rhsMax =  -6.46708127817336E-05  1.06305508086173E-01
 cg2d: Sum(rhs),rhsMax =  -6.49105511647818E-05  1.06354229067076E-01
 cg2d: Sum(rhs),rhsMax =  -6.51510236468270E-05  1.06402916519628E-01
 cg2d: Sum(rhs),rhsMax =  -6.53922222479397E-05  1.06451570421221E-01
 cg2d: Sum(rhs),rhsMax =  -6.56341383140783E-05  1.06500190749307E-01
 cg2d: Sum(rhs),rhsMax =  -6.58767636144211E-05  1.06548777481397E-01
 cg2d: Sum(rhs),rhsMax =  -6.61200895975995E-05  1.06597330595062E-01
 cg2d: Sum(rhs),rhsMax =  -6.63641075324371E-05  1.06645850067931E-01
 cg2d: Sum(rhs),rhsMax =  -6.66088086675575E-05  1.06694335877691E-01
 cg2d: Sum(rhs),rhsMax =  -6.68541842778238E-05  1.06742788002091E-01
 cg2d: Sum(rhs),rhsMax =  -6.71002255002709E-05  1.06791206418937E-01
 cg2d: Sum(rhs),rhsMax =  -6.73469233301669E-05  1.06839591106096E-01
 cg2d: Sum(rhs),rhsMax =  -6.75942689507183E-05  1.06887942041492E-01
 cg2d: Sum(rhs),rhsMax =  -6.78422530568795E-05  1.06936259203112E-01
 cg2d: Sum(rhs),rhsMax =  -6.80908667512079E-05  1.06984542568997E-01
 cg2d: Sum(rhs),rhsMax =  -6.83401006429185E-05  1.07032792117250E-01
 cg2d: Sum(rhs),rhsMax =  -6.85899455929624E-05  1.07081007826035E-01
 cg2d: Sum(rhs),rhsMax =  -6.88403921269608E-05  1.07129189673574E-01
 cg2d: Sum(rhs),rhsMax =  -6.90914309761995E-05  1.07177337638146E-01
 cg2d: Sum(rhs),rhsMax =  -6.93430527589590E-05  1.07225451698095E-01
 cg2d: Sum(rhs),rhsMax =  -6.95952480110253E-05  1.07273531831818E-01
 cg2d: Sum(rhs),rhsMax =  -6.98480072114042E-05  1.07321578017775E-01
 cg2d: Sum(rhs),rhsMax =  -7.01013206563699E-05  1.07369590234487E-01
 cg2d: Sum(rhs),rhsMax =  -7.03551788598725E-05  1.07417568460529E-01
 cg2d: Sum(rhs),rhsMax =  -7.06095722855550E-05  1.07465512674542E-01
 cg2d: Sum(rhs),rhsMax =  -7.08644910361643E-05  1.07513422855222E-01
 cg2d: Sum(rhs),rhsMax =  -7.11199256218419E-05  1.07561298981326E-01
 cg2d: Sum(rhs),rhsMax =  -7.13758661694056E-05  1.07609141031671E-01
(PID.TID 0000.0001)      cg2d_init_res =   3.59895259659969E-03
(PID.TID 0000.0001)      cg2d_iters(min,last) =      -1      84
(PID.TID 0000.0001)      cg2d_last_res =   7.75775949230291E-08
(PID.TID 0000.0001) // =======================================================
(PID.TID 0000.0001) // Begin MONITOR dynamic field statistics
(PID.TID 0000.0001) // =======================================================
(PID.TID 0000.0001) %MON time_tsnumber                =                  1872
(PID.TID 0000.0001) %MON time_secondsf                =   2.2464000000000E+06
(PID.TID 0000.0001) %MON dynstat_eta_max              =   5.6012670849710E-02
(PID.TID 0000.0001) %MON dynstat_eta_min              =  -2.4257130484299E-02
(PID.TID 0000.0001) %MON dynstat_eta_mean             =   3.8558575884027E-08
(PID.TID 0000.0001) %MON dynstat_eta_sd               =   2.1399210436675E-02
(PID.TID 0000.0001) %MON dynstat_eta_del2             =   9.2029013872345E-06
(PID.TID 0000.0001) %MON dynstat_uvel_max             =   2.0434184343835E-02
(PID.TID 0000.0001) %MON dynstat_uvel_min             =  -1.8756869114103E-02
(PID.TID 0000.0001) %MON dynstat_uvel_mean            =  -2.2556688729414E-07
(PID.TID 0000.0001) %MON dynstat_uvel_sd              =   7.6392270472546E-03
(PID.TID 0000.0001) %MON dynstat_uvel_del2            =   8.8500907945268E-06
(PID.TID 0000.0001) %MON dynstat_vvel_max             =   6.4167204633935E-02
(PID.TID 0000.0001) %MON dynstat_vvel_min             =  -1.2523123895291E-02
(PID.TID 0000.0001) %MON dynstat_vvel_mean            =   2.6811698564446E-08
(PID.TID 0000.0001) %MON dynstat_vvel_sd              =   1.2892668379037E-02
(PID.TID 0000.0001) %MON dynstat_vvel_del2            =   4.0898303169473E-05
(PID.TID 0000.0001) %MON dynstat_wvel_max             =   2.6080297467997E-08
(PID.TID 0000.0001) %MON dynstat_wvel_min             =  -1.6406517186551E-08
(PID.TID 0000.0001) %MON dynstat_wvel_mean            =   1.2257639051919E-22
(PID.TID 0000.0001) %MON dynstat_wvel_sd              =   8.7151873322236E-09
(PID.TID 0000.0001) %MON dynstat_wvel_del2            =   5.8051932987224E-12
(PID.TID 0000.0001) %MON dynstat_theta_max            =   2.0000000000000E+01
(PID.TID 0000.0001) %MON dynstat_theta_min            =   2.0000000000000E+01
(PID.TID 0000.0001) %MON dynstat_theta_mean           =   2.0000000000000E+01
(PID.TID 0000.0001) %MON dynstat_theta_sd             =   0.0000000000000E+00
(PID.TID 0000.0001) %MON dynstat_theta_del2           =   0.0000000000000E+00
(PID.TID 0000.0001) %MON dynstat_salt_max             =   3.0000000000000E+01
(PID.TID 0000.0001) %MON dynstat_salt_min             =   3.0000000000000E+01
(PID.TID 0000.0001) %MON dynstat_salt_mean            =   3.0000000000000E+01
(PID.TID 0000.0001) %MON dynstat_salt_sd              =   0.0000000000000E+00
(PID.TID 0000.0001) %MON dynstat_salt_del2            =   0.0000000000000E+00
(PID.TID 0000.0001) %MON trAdv_CFL_u_max              =   1.2256947887545E-03
(PID.TID 0000.0001) %MON trAdv_CFL_v_max              =   3.8481030598153E-03
(PID.TID 0000.0001) %MON trAdv_CFL_w_max              =   6.2627346382476E-09
(PID.TID 0000.0001) %MON advcfl_uvel_max              =   1.2260510606301E-03
(PID.TID 0000.0001) %MON advcfl_vvel_max              =   3.8500322780361E-03
(PID.TID 0000.0001) %MON advcfl_wvel_max              =   1.2518542784639E-08
(PID.TID 0000.0001) %MON advcfl_W_hf_max              =   0.0000000000000E+00
(PID.TID 0000.0001) %MON pe_b_mean                    =   4.4922560937560E-07
(PID.TID 0000.0001) %MON ke_max                       =   2.0567561366392E-03
(PID.TID 0000.0001) %MON ke_mean                      =   1.1041785486594E-04
(PID.TID 0000.0001) %MON ke_vol                       =   7.2000000000000E+15
(PID.TID 0000.0001) %MON vort_r_min                   =  -5.7246432573396E-07
(PID.TID 0000.0001) %MON vort_r_max                   =   1.8735421818434E-06
(PID.TID 0000.0001) %MON vort_a_mean                  =   1.0600000000000E-04
(PID.TID 0000.0001) %MON vort_a_sd                    =   3.5259314099858E-06
(PID.TID 0000.0001) %MON vort_p_mean                  =   1.1130000000000E-04
(PID.TID 0000.0001) %MON vort_p_sd                    =   4.1116607094705E-05
(PID.TID 0000.0001) %MON surfExpan_theta_mean         =   2.4461617916434E-21
(PID.TID 0000.0001) %MON surfExpan_salt_mean          =   3.6686110939223E-21
(PID.TID 0000.0001) // =======================================================
(PID.TID 0000.0001) // End MONITOR dynamic field statistics
(PID.TID 0000.0001) // =======================================================
 cg2d: Sum(rhs),rhsMax =  -7.16323029156304E-05  1.07656948985132E-01
 cg2d: Sum(rhs),rhsMax =  -7.18892261084327E-05  1.07704722820646E-01
 cg2d: Sum(rhs),rhsMax =  -7.21466258250042E-05  1.07752462517207E-01
 cg2d: Sum(rhs),rhsMax =  -7.24044923527652E-05  1.07800168053872E-01
 cg2d: Sum(rhs),rhsMax =  -7.26628155524505E-05  1.07847839409756E-01
 cg2d: Sum(rhs),rhsMax =  -7.29215857312917E-05  1.07895476564030E-01
 cg2d: Sum(rhs),rhsMax =  -7.31807927862003E-05  1.07943079495931E-01
 cg2d: Sum(rhs),rhsMax =  -7.34404269714054E-05  1.07990648184752E-01
 cg2d: Sum(rhs),rhsMax =  -7.37004781688217E-05  1.08038182609847E-01
 cg2d: Sum(rhs),rhsMax =  -7.39609363924927E-05  1.08085682750629E-01
 cg2d: Sum(rhs),rhsMax =  -7.42217916041617E-05  1.08133148586571E-01
 cg2d: Sum(rhs),rhsMax =  -7.44830339799484E-05  1.08180580097206E-01
 cg2d: Sum(rhs),rhsMax =  -7.47446532170940E-05  1.08227977262127E-01
 cg2d: Sum(rhs),rhsMax =  -7.50066395719439E-05  1.08275340060986E-01
 cg2d: Sum(rhs),rhsMax =  -7.52689826509145E-05  1.08322668473497E-01
 cg2d: Sum(rhs),rhsMax =  -7.55316726852619E-05  1.08369962479431E-01
 cg2d: Sum(rhs),rhsMax =  -7.57946994410308E-05  1.08417222058621E-01
 cg2d: Sum(rhs),rhsMax =  -7.60580529444782E-05  1.08464447190959E-01
 cg2d: Sum(rhs),rhsMax =  -7.63217230296863E-05  1.08511637856397E-01
 cg2d: Sum(rhs),rhsMax =  -7.65856995554618E-05  1.08558794034947E-01
 cg2d: Sum(rhs),rhsMax =  -7.68499726379306E-05  1.08605915706681E-01
 cg2d: Sum(rhs),rhsMax =  -7.71145320933005E-05  1.08653002851732E-01
 cg2d: Sum(rhs),rhsMax =  -7.73793677528506E-05  1.08700055450291E-01
 cg2d: Sum(rhs),rhsMax =  -7.76444696892241E-05  1.08747073482610E-01
 cg2d: Sum(rhs),rhsMax =  -7.79098275854959E-05  1.08794056929002E-01
 cg2d: Sum(rhs),rhsMax =  -7.81754315345882E-05  1.08841005769839E-01
 cg2d: Sum(rhs),rhsMax =  -7.84412713874310E-05  1.08887919985553E-01
 cg2d: Sum(rhs),rhsMax =  -7.87073370784258E-05  1.08934799556637E-01
 cg2d: Sum(rhs),rhsMax =  -7.89736185638655E-05  1.08981644463643E-01
 cg2d: Sum(rhs),rhsMax =  -7.92401056463167E-05  1.09028454687183E-01
 cg2d: Sum(rhs),rhsMax =  -7.95067883721801E-05  1.09075230207931E-01
 cg2d: Sum(rhs),rhsMax =  -7.97736566849660E-05  1.09121971006619E-01
 cg2d: Sum(rhs),rhsMax =  -8.00407003700371E-05  1.09168677064040E-01
 cg2d: Sum(rhs),rhsMax =  -8.03079097134703E-05  1.09215348361048E-01
 cg2d: Sum(rhs),rhsMax =  -8.05752743934171E-05  1.09261984878556E-01
 cg2d: Sum(rhs),rhsMax =  -8.08427845267043E-05  1.09308586597538E-01
 cg2d: Sum(rhs),rhsMax =  -8.11104299970862E-05  1.09355153499029E-01
 cg2d: Sum(rhs),rhsMax =  -8.13782008375593E-05  1.09401685564120E-01
 cg2d: Sum(rhs),rhsMax =  -8.16460870761019E-05  1.09448182773970E-01
 cg2d: Sum(rhs),rhsMax =  -8.19140788411435E-05  1.09494645109790E-01
 cg2d: Sum(rhs),rhsMax =  -8.21821659559695E-05  1.09541072552857E-01
 cg2d: Sum(rhs),rhsMax =  -8.24503386174140E-05  1.09587465084505E-01
 cg2d: Sum(rhs),rhsMax =  -8.27185869574105E-05  1.09633822686132E-01
 cg2d: Sum(rhs),rhsMax =  -8.29869008697973E-05  1.09680145339192E-01
 cg2d: Sum(rhs),rhsMax =  -8.32552706298909E-05  1.09726433025202E-01
 cg2d: Sum(rhs),rhsMax =  -8.35236859801592E-05  1.09772685725739E-01
 cg2d: Sum(rhs),rhsMax =  -8.37921374779414E-05  1.09818903422440E-01
 cg2d: Sum(rhs),rhsMax =  -8.40606149880210E-05  1.09865086097003E-01
 cg2d: Sum(rhs),rhsMax =  -8.43291088839628E-05  1.09911233731186E-01
 cg2d: Sum(rhs),rhsMax =  -8.45976090617399E-05  1.09957346306806E-01
 cg2d: Sum(rhs),rhsMax =  -8.48661059828799E-05  1.10003423805744E-01
 cg2d: Sum(rhs),rhsMax =  -8.51345897168029E-05  1.10049466209939E-01
 cg2d: Sum(rhs),rhsMax =  -8.54030506627582E-05  1.10095473501390E-01
 cg2d: Sum(rhs),rhsMax =  -8.56714787398211E-05  1.10141445662157E-01
 cg2d: Sum(rhs),rhsMax =  -8.59398645968916E-05  1.10187382674361E-01
 cg2d: Sum(rhs),rhsMax =  -8.62081982178032E-05  1.10233284520184E-01
 cg2d: Sum(rhs),rhsMax =  -8.64764701033350E-05  1.10279151181868E-01
 cg2d: Sum(rhs),rhsMax =  -8.67446705278985E-05  1.10324982641714E-01
 cg2d: Sum(rhs),rhsMax =  -8.70127898406365E-05  1.10370778882086E-01
 cg2d: Sum(rhs),rhsMax =  -8.72808184086060E-05  1.10416539885408E-01
 cg2d: Sum(rhs),rhsMax =  -8.75487467800473E-05  1.10462265634163E-01
 cg2d: Sum(rhs),rhsMax =  -8.78165651205668E-05  1.10507956110896E-01
 cg2d: Sum(rhs),rhsMax =  -8.80842640182391E-05  1.10553611298211E-01
 cg2d: Sum(rhs),rhsMax =  -8.83518340043486E-05  1.10599231178776E-01
 cg2d: Sum(rhs),rhsMax =  -8.86192653794249E-05  1.10644815735316E-01
 cg2d: Sum(rhs),rhsMax =  -8.88865488218394E-05  1.10690364950619E-01
 cg2d: Sum(rhs),rhsMax =  -8.91536748323773E-05  1.10735878807532E-01
 cg2d: Sum(rhs),rhsMax =  -8.94206338497797E-05  1.10781357288963E-01
 cg2d: Sum(rhs),rhsMax =  -8.96874165802536E-05  1.10826800377883E-01
 cg2d: Sum(rhs),rhsMax =  -8.99540136776178E-05  1.10872208057319E-01
 cg2d: Sum(rhs),rhsMax =  -9.02204156430376E-05  1.10917580310363E-01
 cg2d: Sum(rhs),rhsMax =  -9.04866133196198E-05  1.10962917120166E-01
(PID.TID 0000.0001)      cg2d_init_res =   3.40273575244481E-03
(PID.TID 0000.0001)      cg2d_iters(min,last) =      -1      84
(PID.TID 0000.0001)      cg2d_last_res =   7.74589593749823E-08
(PID.TID 0000.0001) // =======================================================
(PID.TID 0000.0001) // Begin MONITOR dynamic field statistics
(PID.TID 0000.0001) // =======================================================
(PID.TID 0000.0001) %MON time_tsnumber                =                  1944
(PID.TID 0000.0001) %MON time_secondsf                =   2.3328000000000E+06
(PID.TID 0000.0001) %MON dynstat_eta_max              =   5.7459238616753E-02
(PID.TID 0000.0001) %MON dynstat_eta_min              =  -2.3977035352890E-02
(PID.TID 0000.0001) %MON dynstat_eta_mean             =   5.0371420774803E-08
(PID.TID 0000.0001) %MON dynstat_eta_sd               =   2.1502620087773E-02
(PID.TID 0000.0001) %MON dynstat_eta_del2             =   9.6444878689894E-06
(PID.TID 0000.0001) %MON dynstat_uvel_max             =   2.0834583026780E-02
(PID.TID 0000.0001) %MON dynstat_uvel_min             =  -1.8935058423303E-02
(PID.TID 0000.0001) %MON dynstat_uvel_mean            =  -1.7830658136444E-07
(PID.TID 0000.0001) %MON dynstat_uvel_sd              =   7.6146117539811E-03
(PID.TID 0000.0001) %MON dynstat_uvel_del2            =   8.7245659201111E-06
(PID.TID 0000.0001) %MON dynstat_vvel_max             =   6.6426774131991E-02
(PID.TID 0000.0001) %MON dynstat_vvel_min             =  -1.3229447309499E-02
(PID.TID 0000.0001) %MON dynstat_vvel_mean            =   2.8465120895107E-08
(PID.TID 0000.0001) %MON dynstat_vvel_sd              =   1.3225678983417E-02
(PID.TID 0000.0001) %MON dynstat_vvel_del2            =   4.2707959772023E-05
(PID.TID 0000.0001) %MON dynstat_wvel_max             =   2.5005756448954E-08
(PID.TID 0000.0001) %MON dynstat_wvel_min             =  -1.7157070395770E-08
(PID.TID 0000.0001) %MON dynstat_wvel_mean            =  -2.0933962079855E-21
(PID.TID 0000.0001) %MON dynstat_wvel_sd              =   8.5778294046978E-09
(PID.TID 0000.0001) %MON dynstat_wvel_del2            =   5.7912990843928E-12
(PID.TID 0000.0001) %MON dynstat_theta_max            =   2.0000000000000E+01
(PID.TID 0000.0001) %MON dynstat_theta_min            =   2.0000000000000E+01
(PID.TID 0000.0001) %MON dynstat_theta_mean           =   2.0000000000000E+01
(PID.TID 0000.0001) %MON dynstat_theta_sd             =   0.0000000000000E+00
(PID.TID 0000.0001) %MON dynstat_theta_del2           =   0.0000000000000E+00
(PID.TID 0000.0001) %MON dynstat_salt_max             =   3.0000000000000E+01
(PID.TID 0000.0001) %MON dynstat_salt_min             =   3.0000000000000E+01
(PID.TID 0000.0001) %MON dynstat_salt_mean            =   3.0000000000000E+01
(PID.TID 0000.0001) %MON dynstat_salt_sd              =   0.0000000000000E+00
(PID.TID 0000.0001) %MON dynstat_salt_del2            =   0.0000000000000E+00
(PID.TID 0000.0001) %MON trAdv_CFL_u_max              =   1.2497633360544E-03
(PID.TID 0000.0001) %MON trAdv_CFL_v_max              =   3.9837693996579E-03
(PID.TID 0000.0001) %MON trAdv_CFL_w_max              =   6.0051934151910E-09
(PID.TID 0000.0001) %MON advcfl_uvel_max              =   1.2500749816068E-03
(PID.TID 0000.0001) %MON advcfl_vvel_max              =   3.9856064479195E-03
(PID.TID 0000.0001) %MON advcfl_wvel_max              =   1.2002763095498E-08
(PID.TID 0000.0001) %MON advcfl_W_hf_max              =   0.0000000000000E+00
(PID.TID 0000.0001) %MON pe_b_mean                    =   4.5357777989946E-07
(PID.TID 0000.0001) %MON ke_max                       =   2.2048562713003E-03
(PID.TID 0000.0001) %MON ke_mean                      =   1.1450960757803E-04
(PID.TID 0000.0001) %MON ke_vol                       =   7.2000000000000E+15
(PID.TID 0000.0001) %MON vort_r_min                   =  -6.0801496148978E-07
(PID.TID 0000.0001) %MON vort_r_max                   =   1.9247152048453E-06
(PID.TID 0000.0001) %MON vort_a_mean                  =   1.0600000000000E-04
(PID.TID 0000.0001) %MON vort_a_sd                    =   3.5264952466634E-06
(PID.TID 0000.0001) %MON vort_p_mean                  =   1.1130000000000E-04
(PID.TID 0000.0001) %MON vort_p_sd                    =   4.1119050629463E-05
(PID.TID 0000.0001) %MON surfExpan_theta_mean         =  -4.1883254888988E-20
(PID.TID 0000.0001) %MON surfExpan_salt_mean          =  -6.2822986319273E-20
(PID.TID 0000.0001) // =======================================================
(PID.TID 0000.0001) // End MONITOR dynamic field statistics
(PID.TID 0000.0001) // =======================================================
 cg2d: Sum(rhs),rhsMax =  -9.07525973770458E-05  1.11008218469940E-01
 cg2d: Sum(rhs),rhsMax =  -9.10183583345643E-05  1.11053484342958E-01
 cg2d: Sum(rhs),rhsMax =  -9.12838871649380E-05  1.11098714722551E-01
 cg2d: Sum(rhs),rhsMax =  -9.15491745012691E-05  1.11143909592115E-01
 cg2d: Sum(rhs),rhsMax =  -9.18142111434673E-05  1.11189068935105E-01
 cg2d: Sum(rhs),rhsMax =  -9.20789880109974E-05  1.11234192735035E-01
 cg2d: Sum(rhs),rhsMax =  -9.23434958042396E-05  1.11279280975482E-01
 cg2d: Sum(rhs),rhsMax =  -9.26077256358732E-05  1.11324333640084E-01
 cg2d: Sum(rhs),rhsMax =  -9.28716682000608E-05  1.11369350712537E-01
 cg2d: Sum(rhs),rhsMax =  -9.31353146314939E-05  1.11414332176601E-01
 cg2d: Sum(rhs),rhsMax =  -9.33986557817871E-05  1.11459278016095E-01
 cg2d: Sum(rhs),rhsMax =  -9.36616826826405E-05  1.11504188214899E-01
 cg2d: Sum(rhs),rhsMax =  -9.39243863642501E-05  1.11549062756955E-01
 cg2d: Sum(rhs),rhsMax =  -9.41867578872681E-05  1.11593901626264E-01
 cg2d: Sum(rhs),rhsMax =  -9.44487883454016E-05  1.11638704806889E-01
 cg2d: Sum(rhs),rhsMax =  -9.47104688507278E-05  1.11683472282953E-01
 cg2d: Sum(rhs),rhsMax =  -9.49717905010103E-05  1.11728204038641E-01
 cg2d: Sum(rhs),rhsMax =  -9.52327445418377E-05  1.11772900058200E-01
 cg2d: Sum(rhs),rhsMax =  -9.54933223456392E-05  1.11817560325933E-01
 cg2d: Sum(rhs),rhsMax =  -9.57535148133452E-05  1.11862184826210E-01
 cg2d: Sum(rhs),rhsMax =  -9.60133136099339E-05  1.11906773543457E-01
 cg2d: Sum(rhs),rhsMax =  -9.62727096960802E-05  1.11951326462164E-01
 cg2d: Sum(rhs),rhsMax =  -9.65316946440475E-05  1.11995843566880E-01
 cg2d: Sum(rhs),rhsMax =  -9.67902598980582E-05  1.12040324842216E-01
 cg2d: Sum(rhs),rhsMax =  -9.70483967254734E-05  1.12084770272843E-01
 cg2d: Sum(rhs),rhsMax =  -9.73060965273314E-05  1.12129179843495E-01
 cg2d: Sum(rhs),rhsMax =  -9.75633509714795E-05  1.12173553538965E-01
 cg2d: Sum(rhs),rhsMax =  -9.78201515008980E-05  1.12217891344107E-01
 cg2d: Sum(rhs),rhsMax =  -9.80764895843573E-05  1.12262193243836E-01
 cg2d: Sum(rhs),rhsMax =  -9.83323568573575E-05  1.12306459223129E-01
 cg2d: Sum(rhs),rhsMax =  -9.85877450827705E-05  1.12350689267023E-01
 cg2d: Sum(rhs),rhsMax =  -9.88426457164907E-05  1.12394883360616E-01
 cg2d: Sum(rhs),rhsMax =  -9.90970506045217E-05  1.12439041489068E-01
 cg2d: Sum(rhs),rhsMax =  -9.93509514522223E-05  1.12483163637597E-01
 cg2d: Sum(rhs),rhsMax =  -9.96043400602799E-05  1.12527249791488E-01
 cg2d: Sum(rhs),rhsMax =  -9.98572082176038E-05  1.12571299936080E-01
 cg2d: Sum(rhs),rhsMax =  -1.00109547801804E-04  1.12615314056777E-01
 cg2d: Sum(rhs),rhsMax =  -1.00361350607028E-04  1.12659292139043E-01
 cg2d: Sum(rhs),rhsMax =  -1.00612608810378E-04  1.12703234168404E-01
 cg2d: Sum(rhs),rhsMax =  -1.00863313980066E-04  1.12747140130445E-01
 cg2d: Sum(rhs),rhsMax =  -1.01113458387819E-04  1.12791010010815E-01
 cg2d: Sum(rhs),rhsMax =  -1.01363034120695E-04  1.12834843795219E-01
 cg2d: Sum(rhs),rhsMax =  -1.01612033174913E-04  1.12878641469430E-01
 cg2d: Sum(rhs),rhsMax =  -1.01860447705987E-04  1.12922403019276E-01
 cg2d: Sum(rhs),rhsMax =  -1.02108269934367E-04  1.12966128430649E-01
 cg2d: Sum(rhs),rhsMax =  -1.02355492021774E-04  1.13009817689500E-01
 cg2d: Sum(rhs),rhsMax =  -1.02602106281858E-04  1.13053470781845E-01
 cg2d: Sum(rhs),rhsMax =  -1.02848104951964E-04  1.13097087693755E-01
 cg2d: Sum(rhs),rhsMax =  -1.03093480362245E-04  1.13140668411369E-01
 cg2d: Sum(rhs),rhsMax =  -1.03338224944117E-04  1.13184212920882E-01
 cg2d: Sum(rhs),rhsMax =  -1.03582331060325E-04  1.13227721208550E-01
 cg2d: Sum(rhs),rhsMax =  -1.03825791404834E-04  1.13271193260695E-01
 cg2d: Sum(rhs),rhsMax =  -1.04068598363886E-04  1.13314629063694E-01
 cg2d: Sum(rhs),rhsMax =  -1.04310744417991E-04  1.13358028603988E-01
 cg2d: Sum(rhs),rhsMax =  -1.04552222198647E-04  1.13401391868080E-01
 cg2d: Sum(rhs),rhsMax =  -1.04793024581977E-04  1.13444718842533E-01
 cg2d: Sum(rhs),rhsMax =  -1.05033144098306E-04  1.13488009513971E-01
 cg2d: Sum(rhs),rhsMax =  -1.05272573487684E-04  1.13531263869077E-01
 cg2d: Sum(rhs),rhsMax =  -1.05511305548023E-04  1.13574481894599E-01
 cg2d: Sum(rhs),rhsMax =  -1.05749333296321E-04  1.13617663577345E-01
 cg2d: Sum(rhs),rhsMax =  -1.05986649453087E-04  1.13660808904182E-01
 cg2d: Sum(rhs),rhsMax =  -1.06223247024272E-04  1.13703917862039E-01
 cg2d: Sum(rhs),rhsMax =  -1.06459119052924E-04  1.13746990437907E-01
 cg2d: Sum(rhs),rhsMax =  -1.06694258623824E-04  1.13790026618839E-01
 cg2d: Sum(rhs),rhsMax =  -1.06928658637875E-04  1.13833026391946E-01
 cg2d: Sum(rhs),rhsMax =  -1.07162312540227E-04  1.13875989744402E-01
 cg2d: Sum(rhs),rhsMax =  -1.07395213249429E-04  1.13918916663443E-01
 cg2d: Sum(rhs),rhsMax =  -1.07627354261362E-04  1.13961807136364E-01
 cg2d: Sum(rhs),rhsMax =  -1.07858728797289E-04  1.14004661150523E-01
 cg2d: Sum(rhs),rhsMax =  -1.08089330115971E-04  1.14047478693337E-01
 cg2d: Sum(rhs),rhsMax =  -1.08319151661019E-04  1.14090259752285E-01
 cg2d: Sum(rhs),rhsMax =  -1.08548187020907E-04  1.14133004314910E-01
(PID.TID 0000.0001)      cg2d_init_res =   3.22012998034762E-03
(PID.TID 0000.0001)      cg2d_iters(min,last) =      -1      84
(PID.TID 0000.0001)      cg2d_last_res =   7.48699533224083E-08
(PID.TID 0000.0001) // =======================================================
(PID.TID 0000.0001) // Begin MONITOR dynamic field statistics
(PID.TID 0000.0001) // =======================================================
(PID.TID 0000.0001) %MON time_tsnumber                =                  2016
(PID.TID 0000.0001) %MON time_secondsf                =   2.4192000000000E+06
(PID.TID 0000.0001) %MON dynstat_eta_max              =   5.8701648516713E-02
(PID.TID 0000.0001) %MON dynstat_eta_min              =  -2.3654690741052E-02
(PID.TID 0000.0001) %MON dynstat_eta_mean             =   6.2098131757103E-08
(PID.TID 0000.0001) %MON dynstat_eta_sd               =   2.1550371624311E-02
(PID.TID 0000.0001) %MON dynstat_eta_del2             =   1.0081028183292E-05
(PID.TID 0000.0001) %MON dynstat_uvel_max             =   2.1253701502075E-02
(PID.TID 0000.0001) %MON dynstat_uvel_min             =  -1.9045814741177E-02
(PID.TID 0000.0001) %MON dynstat_uvel_mean            =  -1.3070751835349E-07
(PID.TID 0000.0001) %MON dynstat_uvel_sd              =   7.5742386582851E-03
(PID.TID 0000.0001) %MON dynstat_uvel_del2            =   8.5867672992727E-06
(PID.TID 0000.0001) %MON dynstat_vvel_max             =   6.8572399222022E-02
(PID.TID 0000.0001) %MON dynstat_vvel_min             =  -1.3953873107404E-02
(PID.TID 0000.0001) %MON dynstat_vvel_mean            =   2.9802450382621E-08
(PID.TID 0000.0001) %MON dynstat_vvel_sd              =   1.3537657787268E-02
(PID.TID 0000.0001) %MON dynstat_vvel_del2            =   4.4470683839545E-05
(PID.TID 0000.0001) %MON dynstat_wvel_max             =   2.3804335807217E-08
(PID.TID 0000.0001) %MON dynstat_wvel_min             =  -1.7943946367013E-08
(PID.TID 0000.0001) %MON dynstat_wvel_mean            =   3.2429612575571E-21
(PID.TID 0000.0001) %MON dynstat_wvel_sd              =   8.4673681931605E-09
(PID.TID 0000.0001) %MON dynstat_wvel_del2            =   5.7650431479741E-12
(PID.TID 0000.0001) %MON dynstat_theta_max            =   2.0000000000000E+01
(PID.TID 0000.0001) %MON dynstat_theta_min            =   2.0000000000000E+01
(PID.TID 0000.0001) %MON dynstat_theta_mean           =   2.0000000000000E+01
(PID.TID 0000.0001) %MON dynstat_theta_sd             =   0.0000000000000E+00
(PID.TID 0000.0001) %MON dynstat_theta_del2           =   0.0000000000000E+00
(PID.TID 0000.0001) %MON dynstat_salt_max             =   3.0000000000000E+01
(PID.TID 0000.0001) %MON dynstat_salt_min             =   3.0000000000000E+01
(PID.TID 0000.0001) %MON dynstat_salt_mean            =   3.0000000000000E+01
(PID.TID 0000.0001) %MON dynstat_salt_sd              =   0.0000000000000E+00
(PID.TID 0000.0001) %MON dynstat_salt_del2            =   0.0000000000000E+00
(PID.TID 0000.0001) %MON trAdv_CFL_u_max              =   1.2748876255539E-03
(PID.TID 0000.0001) %MON trAdv_CFL_v_max              =   4.1126044246007E-03
(PID.TID 0000.0001) %MON trAdv_CFL_w_max              =   5.7171413124539E-09
(PID.TID 0000.0001) %MON advcfl_uvel_max              =   1.2752220901245E-03
(PID.TID 0000.0001) %MON advcfl_vvel_max              =   4.1143439533213E-03
(PID.TID 0000.0001) %MON advcfl_wvel_max              =   1.1426081187464E-08
(PID.TID 0000.0001) %MON advcfl_W_hf_max              =   0.0000000000000E+00
(PID.TID 0000.0001) %MON pe_b_mean                    =   4.5559456532393E-07
(PID.TID 0000.0001) %MON ke_max                       =   2.3503788544084E-03
(PID.TID 0000.0001) %MON ke_mean                      =   1.1831332423760E-04
(PID.TID 0000.0001) %MON ke_vol                       =   7.2000000000000E+15
(PID.TID 0000.0001) %MON vort_r_min                   =  -6.4376331821890E-07
(PID.TID 0000.0001) %MON vort_r_max                   =   1.9725570566190E-06
(PID.TID 0000.0001) %MON vort_a_mean                  =   1.0600000000000E-04
(PID.TID 0000.0001) %MON vort_a_sd                    =   3.5270572232964E-06
(PID.TID 0000.0001) %MON vort_p_mean                  =   1.1130000000000E-04
(PID.TID 0000.0001) %MON vort_p_sd                    =   4.1121349228251E-05
(PID.TID 0000.0001) %MON surfExpan_theta_mean         =   6.4840814199367E-20
(PID.TID 0000.0001) %MON surfExpan_salt_mean          =   9.7259958111964E-20
(PID.TID 0000.0001) // =======================================================
(PID.TID 0000.0001) // End MONITOR dynamic field statistics
(PID.TID 0000.0001) // =======================================================
 cg2d: Sum(rhs),rhsMax =  -1.08776429736319E-04  1.14175712368811E-01
 cg2d: Sum(rhs),rhsMax =  -1.09003873178882E-04  1.14218383901652E-01
 cg2d: Sum(rhs),rhsMax =  -1.09230511220221E-04  1.14261018901155E-01
 cg2d: Sum(rhs),rhsMax =  -1.09456337358546E-04  1.14303617355106E-01
 cg2d: Sum(rhs),rhsMax =  -1.09681345473051E-04  1.14346179251352E-01
 cg2d: Sum(rhs),rhsMax =  -1.09905529265783E-04  1.14388704577798E-01
 cg2d: Sum(rhs),rhsMax =  -1.10128882754280E-04  1.14431193322413E-01
 cg2d: Sum(rhs),rhsMax =  -1.10351399624046E-04  1.14473645473226E-01
 cg2d: Sum(rhs),rhsMax =  -1.10573073991840E-04  1.14516061018329E-01
 cg2d: Sum(rhs),rhsMax =  -1.10793899913186E-04  1.14558439945871E-01
 cg2d: Sum(rhs),rhsMax =  -1.11013871518181E-04  1.14600782244066E-01
 cg2d: Sum(rhs),rhsMax =  -1.11232982810214E-04  1.14643087901188E-01
 cg2d: Sum(rhs),rhsMax =  -1.11451227995059E-04  1.14685356905569E-01
 cg2d: Sum(rhs),rhsMax =  -1.11668601521215E-04  1.14727589245609E-01
 cg2d: Sum(rhs),rhsMax =  -1.11885097479438E-04  1.14769784909761E-01
 cg2d: Sum(rhs),rhsMax =  -1.12100710570518E-04  1.14811943886546E-01
 cg2d: Sum(rhs),rhsMax =  -1.12315434999070E-04  1.14854066164542E-01
 cg2d: Sum(rhs),rhsMax =  -1.12529265486201E-04  1.14896151732389E-01
 cg2d: Sum(rhs),rhsMax =  -1.12742196294497E-04  1.14938200578788E-01
 cg2d: Sum(rhs),rhsMax =  -1.12954222326170E-04  1.14980212692502E-01
 cg2d: Sum(rhs),rhsMax =  -1.13165338167308E-04  1.15022188062355E-01
 cg2d: Sum(rhs),rhsMax =  -1.13375538768910E-04  1.15064126677230E-01
 cg2d: Sum(rhs),rhsMax =  -1.13584818770485E-04  1.15106028526074E-01
 cg2d: Sum(rhs),rhsMax =  -1.13793173135856E-04  1.15147893597894E-01
 cg2d: Sum(rhs),rhsMax =  -1.14000596863186E-04  1.15189721881757E-01
 cg2d: Sum(rhs),rhsMax =  -1.14207084933948E-04  1.15231513366792E-01
 cg2d: Sum(rhs),rhsMax =  -1.14412632403372E-04  1.15273268042190E-01
 cg2d: Sum(rhs),rhsMax =  -1.14617234481066E-04  1.15314985897199E-01
 cg2d: Sum(rhs),rhsMax =  -1.14820886344980E-04  1.15356666921135E-01
 cg2d: Sum(rhs),rhsMax =  -1.15023583404074E-04  1.15398311103369E-01
 cg2d: Sum(rhs),rhsMax =  -1.15225320870863E-04  1.15439918433335E-01
 cg2d: Sum(rhs),rhsMax =  -1.15426094219074E-04  1.15481488900529E-01
 cg2d: Sum(rhs),rhsMax =  -1.15625899057639E-04  1.15523022494508E-01
 cg2d: Sum(rhs),rhsMax =  -1.15824730762337E-04  1.15564519204888E-01
 cg2d: Sum(rhs),rhsMax =  -1.16022585082009E-04  1.15605979021349E-01
 cg2d: Sum(rhs),rhsMax =  -1.16219457531344E-04  1.15647401933628E-01
 cg2d: Sum(rhs),rhsMax =  -1.16415344087678E-04  1.15688787931527E-01
 cg2d: Sum(rhs),rhsMax =  -1.16610240403331E-04  1.15730137004908E-01
 cg2d: Sum(rhs),rhsMax =  -1.16804142435986E-04  1.15771449143693E-01
 cg2d: Sum(rhs),rhsMax =  -1.16997046204291E-04  1.15812724337866E-01
 cg2d: Sum(rhs),rhsMax =  -1.17188947661455E-04  1.15853962577471E-01
 cg2d: Sum(rhs),rhsMax =  -1.17379842931618E-04  1.15895163852614E-01
 cg2d: Sum(rhs),rhsMax =  -1.17569728270210E-04  1.15936328153461E-01
 cg2d: Sum(rhs),rhsMax =  -1.17758599843545E-04  1.15977455470240E-01
 cg2d: Sum(rhs),rhsMax =  -1.17946453918498E-04  1.16018545793239E-01
 cg2d: Sum(rhs),rhsMax =  -1.18133287029080E-04  1.16059599112809E-01
 cg2d: Sum(rhs),rhsMax =  -1.18319095587383E-04  1.16100615419360E-01
 cg2d: Sum(rhs),rhsMax =  -1.18503875959266E-04  1.16141594703364E-01
 cg2d: Sum(rhs),rhsMax =  -1.18739193181505E-04  1.16182537261480E-01
 cg2d: Sum(rhs),rhsMax =  -1.18973265302338E-04  1.16223442481418E-01
 cg2d: Sum(rhs),rhsMax =  -1.19206111509441E-04  1.16264310634990E-01
 cg2d: Sum(rhs),rhsMax =  -1.19437711546084E-04  1.16305141730144E-01
 cg2d: Sum(rhs),rhsMax =  -1.19668060438390E-04  1.16345935756756E-01
 cg2d: Sum(rhs),rhsMax =  -1.19897154551321E-04  1.16386692705471E-01
 cg2d: Sum(rhs),rhsMax =  -1.20124990599658E-04  1.16427412567180E-01
 cg2d: Sum(rhs),rhsMax =  -1.20351565181053E-04  1.16468095332657E-01
 cg2d: Sum(rhs),rhsMax =  -1.20576874517716E-04  1.16508740992596E-01
 cg2d: Sum(rhs),rhsMax =  -1.20800914524842E-04  1.16549349537839E-01
 cg2d: Sum(rhs),rhsMax =  -1.21023681106837E-04  1.16589920959490E-01
 cg2d: Sum(rhs),rhsMax =  -1.21245170183108E-04  1.16630455248867E-01
 cg2d: Sum(rhs),rhsMax =  -1.21465378126992E-04  1.16670952397389E-01
 cg2d: Sum(rhs),rhsMax =  -1.21684300986098E-04  1.16711412396474E-01
 cg2d: Sum(rhs),rhsMax =  -1.21901935345961E-04  1.16751835237518E-01
 cg2d: Sum(rhs),rhsMax =  -1.22118277573464E-04  1.16792220911923E-01
 cg2d: Sum(rhs),rhsMax =  -1.22333324429786E-04  1.16832569411136E-01
 cg2d: Sum(rhs),rhsMax =  -1.22547072430641E-04  1.16872880726681E-01
 cg2d: Sum(rhs),rhsMax =  -1.22759518406183E-04  1.16913154850171E-01
 cg2d: Sum(rhs),rhsMax =  -1.22970659109586E-04  1.16953391773306E-01
 cg2d: Sum(rhs),rhsMax =  -1.23180491412492E-04  1.16993591487851E-01
 cg2d: Sum(rhs),rhsMax =  -1.23389012285745E-04  1.17033753985639E-01
 cg2d: Sum(rhs),rhsMax =  -1.23596218955743E-04  1.17073879258552E-01
 cg2d: Sum(rhs),rhsMax =  -1.23802108456086E-04  1.17113967298528E-01
(PID.TID 0000.0001)      cg2d_init_res =   3.05036050478063E-03
(PID.TID 0000.0001)      cg2d_iters(min,last) =      -1      83
(PID.TID 0000.0001)      cg2d_last_res =   9.56407998624402E-08
(PID.TID 0000.0001) // =======================================================
(PID.TID 0000.0001) // Begin MONITOR dynamic field statistics
(PID.TID 0000.0001) // =======================================================
(PID.TID 0000.0001) %MON time_tsnumber                =                  2088
(PID.TID 0000.0001) %MON time_secondsf                =   2.5056000000000E+06
(PID.TID 0000.0001) %MON dynstat_eta_max              =   5.9748354611001E-02
(PID.TID 0000.0001) %MON dynstat_eta_min              =  -2.3298731035131E-02
(PID.TID 0000.0001) %MON dynstat_eta_mean             =   7.2639403060393E-08
(PID.TID 0000.0001) %MON dynstat_eta_sd               =   2.1544691934813E-02
(PID.TID 0000.0001) %MON dynstat_eta_del2             =   1.0511271740058E-05
(PID.TID 0000.0001) %MON dynstat_uvel_max             =   2.1630612917266E-02
(PID.TID 0000.0001) %MON dynstat_uvel_min             =  -1.9150231906367E-02
(PID.TID 0000.0001) %MON dynstat_uvel_mean            =  -8.3365512198345E-08
(PID.TID 0000.0001) %MON dynstat_uvel_sd              =   7.5198498867504E-03
(PID.TID 0000.0001) %MON dynstat_uvel_del2            =   8.4402637875924E-06
(PID.TID 0000.0001) %MON dynstat_vvel_max             =   7.0600737181783E-02
(PID.TID 0000.0001) %MON dynstat_vvel_min             =  -1.4723580405561E-02
(PID.TID 0000.0001) %MON dynstat_vvel_mean            =   3.0810743847438E-08
(PID.TID 0000.0001) %MON dynstat_vvel_sd              =   1.3828327856772E-02
(PID.TID 0000.0001) %MON dynstat_vvel_del2            =   4.6181536905937E-05
(PID.TID 0000.0001) %MON dynstat_wvel_max             =   2.2714925846085E-08
(PID.TID 0000.0001) %MON dynstat_wvel_min             =  -1.8718788305996E-08
(PID.TID 0000.0001) %MON dynstat_wvel_mean            =  -1.6760519530281E-21
(PID.TID 0000.0001) %MON dynstat_wvel_sd              =   8.3822010132244E-09
(PID.TID 0000.0001) %MON dynstat_wvel_del2            =   5.7254419300633E-12
(PID.TID 0000.0001) %MON dynstat_theta_max            =   2.0000000000000E+01
(PID.TID 0000.0001) %MON dynstat_theta_min            =   2.0000000000000E+01
(PID.TID 0000.0001) %MON dynstat_theta_mean           =   2.0000000000000E+01
(PID.TID 0000.0001) %MON dynstat_theta_sd             =   0.0000000000000E+00
(PID.TID 0000.0001) %MON dynstat_theta_del2           =   0.0000000000000E+00
(PID.TID 0000.0001) %MON dynstat_salt_max             =   3.0000000000000E+01
(PID.TID 0000.0001) %MON dynstat_salt_min             =   3.0000000000000E+01
(PID.TID 0000.0001) %MON dynstat_salt_mean            =   3.0000000000000E+01
(PID.TID 0000.0001) %MON dynstat_salt_sd              =   0.0000000000000E+00
(PID.TID 0000.0001) %MON dynstat_salt_del2            =   0.0000000000000E+00
(PID.TID 0000.0001) %MON trAdv_CFL_u_max              =   1.2975424605061E-03
(PID.TID 0000.0001) %MON trAdv_CFL_v_max              =   4.2343851536332E-03
(PID.TID 0000.0001) %MON trAdv_CFL_w_max              =   5.4551796410233E-09
(PID.TID 0000.0001) %MON advcfl_uvel_max              =   1.2978367750360E-03
(PID.TID 0000.0001) %MON advcfl_vvel_max              =   4.2360442309070E-03
(PID.TID 0000.0001) %MON advcfl_wvel_max              =   1.0903164406121E-08
(PID.TID 0000.0001) %MON advcfl_W_hf_max              =   0.0000000000000E+00
(PID.TID 0000.0001) %MON pe_b_mean                    =   4.5535444931041E-07
(PID.TID 0000.0001) %MON ke_max                       =   2.4921799811494E-03
(PID.TID 0000.0001) %MON ke_mean                      =   1.2182064020708E-04
(PID.TID 0000.0001) %MON ke_vol                       =   7.2000000000000E+15
(PID.TID 0000.0001) %MON vort_r_min                   =  -6.7969981185343E-07
(PID.TID 0000.0001) %MON vort_r_max                   =   2.0170172691345E-06
(PID.TID 0000.0001) %MON vort_a_mean                  =   1.0600000000000E-04
(PID.TID 0000.0001) %MON vort_a_sd                    =   3.5276142097024E-06
(PID.TID 0000.0001) %MON vort_p_mean                  =   1.1130000000000E-04
(PID.TID 0000.0001) %MON vort_p_sd                    =   4.1123510512080E-05
(PID.TID 0000.0001) %MON surfExpan_theta_mean         =  -3.3533353871462E-20
(PID.TID 0000.0001) %MON surfExpan_salt_mean          =  -5.0300030807193E-20
(PID.TID 0000.0001) // =======================================================
(PID.TID 0000.0001) // End MONITOR dynamic field statistics
(PID.TID 0000.0001) // =======================================================
 cg2d: Sum(rhs),rhsMax =  -1.24006678113068E-04  1.17154018097559E-01
 cg2d: Sum(rhs),rhsMax =  -1.24209925319454E-04  1.17194031647697E-01
 cg2d: Sum(rhs),rhsMax =  -1.24411847598063E-04  1.17234007941050E-01
 cg2d: Sum(rhs),rhsMax =  -1.24612442315711E-04  1.17273946969792E-01
 cg2d: Sum(rhs),rhsMax =  -1.24811707347561E-04  1.17313848726156E-01
 cg2d: Sum(rhs),rhsMax =  -1.25009640381375E-04  1.17353713202441E-01
 cg2d: Sum(rhs),rhsMax =  -1.25206239239987E-04  1.17393540391005E-01
 cg2d: Sum(rhs),rhsMax =  -1.25401501954648E-04  1.17433330284268E-01
 cg2d: Sum(rhs),rhsMax =  -1.25595426644429E-04  1.17473082874713E-01
 cg2d: Sum(rhs),rhsMax =  -1.25788011418828E-04  1.17512798154881E-01
 cg2d: Sum(rhs),rhsMax =  -1.25979254643688E-04  1.17552476117374E-01
 cg2d: Sum(rhs),rhsMax =  -1.26169154682725E-04  1.17592116754855E-01
 cg2d: Sum(rhs),rhsMax =  -1.26357710150722E-04  1.17631720060044E-01
 cg2d: Sum(rhs),rhsMax =  -1.26544919655931E-04  1.17671286025725E-01
 cg2d: Sum(rhs),rhsMax =  -1.26730781903668E-04  1.17710814644742E-01
 cg2d: Sum(rhs),rhsMax =  -1.26915295912548E-04  1.17750305909998E-01
 cg2d: Sum(rhs),rhsMax =  -1.27098460639358E-04  1.17789759814460E-01
 cg2d: Sum(rhs),rhsMax =  -1.27280275261447E-04  1.17829176351152E-01
 cg2d: Sum(rhs),rhsMax =  -1.27460738988069E-04  1.17868555513161E-01
 cg2d: Sum(rhs),rhsMax =  -1.27639851476193E-04  1.17907897293635E-01
 cg2d: Sum(rhs),rhsMax =  -1.27817611872476E-04  1.17947201685780E-01
 cg2d: Sum(rhs),rhsMax =  -1.27994020107855E-04  1.17986468682866E-01
 cg2d: Sum(rhs),rhsMax =  -1.28169076007384E-04  1.18025698278221E-01
 cg2d: Sum(rhs),rhsMax =  -1.28342779627677E-04  1.18064890465235E-01
 cg2d: Sum(rhs),rhsMax =  -1.28515130845327E-04  1.18104045237356E-01
 cg2d: Sum(rhs),rhsMax =  -1.28686130067716E-04  1.18143162588097E-01
 cg2d: Sum(rhs),rhsMax =  -1.28855777872453E-04  1.18182242511025E-01
 cg2d: Sum(rhs),rhsMax =  -1.29024074627930E-04  1.18221284999774E-01
 cg2d: Sum(rhs),rhsMax =  -1.29191021137729E-04  1.18260290048036E-01
 cg2d: Sum(rhs),rhsMax =  -1.29356618333240E-04  1.18299257649561E-01
 cg2d: Sum(rhs),rhsMax =  -1.29520867362088E-04  1.18338187798163E-01
 cg2d: Sum(rhs),rhsMax =  -1.29683769335873E-04  1.18377080487716E-01
 cg2d: Sum(rhs),rhsMax =  -1.29845325846026E-04  1.18415935712151E-01
 cg2d: Sum(rhs),rhsMax =  -1.30005538252476E-04  1.18454753465465E-01
 cg2d: Sum(rhs),rhsMax =  -1.30164408521327E-04  1.18493533741709E-01
 cg2d: Sum(rhs),rhsMax =  -1.30321938657879E-04  1.18532276535001E-01
 cg2d: Sum(rhs),rhsMax =  -1.30478130705802E-04  1.18570981839514E-01
 cg2d: Sum(rhs),rhsMax =  -1.30632987103151E-04  1.18609649649484E-01
 cg2d: Sum(rhs),rhsMax =  -1.30786510501341E-04  1.18648279959207E-01
 cg2d: Sum(rhs),rhsMax =  -1.30938703651479E-04  1.18686872763038E-01
 cg2d: Sum(rhs),rhsMax =  -1.31089569405034E-04  1.18725428055393E-01
 cg2d: Sum(rhs),rhsMax =  -1.31239111162663E-04  1.18763945830752E-01
 cg2d: Sum(rhs),rhsMax =  -1.31387332200385E-04  1.18802426083648E-01
 cg2d: Sum(rhs),rhsMax =  -1.31534236174063E-04  1.18840868808680E-01
 cg2d: Sum(rhs),rhsMax =  -1.31679827090659E-04  1.18879274000506E-01
 cg2d: Sum(rhs),rhsMax =  -1.31824108891024E-04  1.18917641653842E-01
 cg2d: Sum(rhs),rhsMax =  -1.31967086223560E-04  1.18955971763468E-01
 cg2d: Sum(rhs),rhsMax =  -1.32108763463093E-04  1.18994264324219E-01
 cg2d: Sum(rhs),rhsMax =  -1.32249145520726E-04  1.19032519330997E-01
 cg2d: Sum(rhs),rhsMax =  -1.32388237569939E-04  1.19070736778757E-01
 cg2d: Sum(rhs),rhsMax =  -1.32526044970055E-04  1.19108916662519E-01
 cg2d: Sum(rhs),rhsMax =  -1.32662573510625E-04  1.19147058977362E-01
 cg2d: Sum(rhs),rhsMax =  -1.32797828974769E-04  1.19185163718426E-01
 cg2d: Sum(rhs),rhsMax =  -1.32931817585696E-04  1.19223230880907E-01
 cg2d: Sum(rhs),rhsMax =  -1.33064546002738E-04  1.19261260460066E-01
 cg2d: Sum(rhs),rhsMax =  -1.33196020937952E-04  1.19299252451222E-01
 cg2d: Sum(rhs),rhsMax =  -1.33326249687526E-04  1.19337206849753E-01
 cg2d: Sum(rhs),rhsMax =  -1.33455239543993E-04  1.19375123651100E-01
 cg2d: Sum(rhs),rhsMax =  -1.33582998219274E-04  1.19413002850761E-01
 cg2d: Sum(rhs),rhsMax =  -1.33709533889310E-04  1.19450844444295E-01
 cg2d: Sum(rhs),rhsMax =  -1.33834855071792E-04  1.19488648427322E-01
 cg2d: Sum(rhs),rhsMax =  -1.33958970312056E-04  1.19526414795521E-01
 cg2d: Sum(rhs),rhsMax =  -1.34081888796513E-04  1.19564143544631E-01
 cg2d: Sum(rhs),rhsMax =  -1.34203620042106E-04  1.19601834670451E-01
 cg2d: Sum(rhs),rhsMax =  -1.34324173849722E-04  1.19639488168840E-01
 cg2d: Sum(rhs),rhsMax =  -1.34443560320646E-04  1.19677104035717E-01
 cg2d: Sum(rhs),rhsMax =  -1.34561789924178E-04  1.19714682267062E-01
 cg2d: Sum(rhs),rhsMax =  -1.34678873765141E-04  1.19752222858912E-01
 cg2d: Sum(rhs),rhsMax =  -1.34794823045604E-04  1.19789725807366E-01
 cg2d: Sum(rhs),rhsMax =  -1.34909649494140E-04  1.19827191108583E-01
 cg2d: Sum(rhs),rhsMax =  -1.35023365327109E-04  1.19864618758781E-01
 cg2d: Sum(rhs),rhsMax =  -1.35135982724062E-04  1.19902008754238E-01
(PID.TID 0000.0001)      cg2d_init_res =   2.89277785609083E-03
(PID.TID 0000.0001)      cg2d_iters(min,last) =      -1      83
(PID.TID 0000.0001)      cg2d_last_res =   7.85910534923348E-08
(PID.TID 0000.0001) // =======================================================
(PID.TID 0000.0001) // Begin MONITOR dynamic field statistics
(PID.TID 0000.0001) // =======================================================
(PID.TID 0000.0001) %MON time_tsnumber                =                  2160
(PID.TID 0000.0001) %MON time_secondsf                =   2.5920000000000E+06
(PID.TID 0000.0001) %MON dynstat_eta_max              =   6.0872225360773E-02
(PID.TID 0000.0001) %MON dynstat_eta_min              =  -2.2917772153044E-02
(PID.TID 0000.0001) %MON dynstat_eta_mean             =   8.1107502570906E-08
(PID.TID 0000.0001) %MON dynstat_eta_sd               =   2.1488154173904E-02
(PID.TID 0000.0001) %MON dynstat_eta_del2             =   1.0934028082150E-05
(PID.TID 0000.0001) %MON dynstat_uvel_max             =   2.1959541702072E-02
(PID.TID 0000.0001) %MON dynstat_uvel_min             =  -1.9197985506060E-02
(PID.TID 0000.0001) %MON dynstat_uvel_mean            =  -3.6864959448788E-08
(PID.TID 0000.0001) %MON dynstat_uvel_sd              =   7.4532185821827E-03
(PID.TID 0000.0001) %MON dynstat_uvel_del2            =   8.2884030663371E-06
(PID.TID 0000.0001) %MON dynstat_vvel_max             =   7.2529077913517E-02
(PID.TID 0000.0001) %MON dynstat_vvel_min             =  -1.5509198934428E-02
(PID.TID 0000.0001) %MON dynstat_vvel_mean            =   3.1481039614484E-08
(PID.TID 0000.0001) %MON dynstat_vvel_sd              =   1.4097574333027E-02
(PID.TID 0000.0001) %MON dynstat_vvel_del2            =   4.7836163517511E-05
(PID.TID 0000.0001) %MON dynstat_wvel_max             =   2.1590382747818E-08
(PID.TID 0000.0001) %MON dynstat_wvel_min             =  -1.9476593617583E-08
(PID.TID 0000.0001) %MON dynstat_wvel_mean            =  -2.5009520262150E-21
(PID.TID 0000.0001) %MON dynstat_wvel_sd              =   8.3199430207992E-09
(PID.TID 0000.0001) %MON dynstat_wvel_del2            =   5.6778595192220E-12
(PID.TID 0000.0001) %MON dynstat_theta_max            =   2.0000000000000E+01
(PID.TID 0000.0001) %MON dynstat_theta_min            =   2.0000000000000E+01
(PID.TID 0000.0001) %MON dynstat_theta_mean           =   2.0000000000000E+01
(PID.TID 0000.0001) %MON dynstat_theta_sd             =   0.0000000000000E+00
(PID.TID 0000.0001) %MON dynstat_theta_del2           =   0.0000000000000E+00
(PID.TID 0000.0001) %MON dynstat_salt_max             =   3.0000000000000E+01
(PID.TID 0000.0001) %MON dynstat_salt_min             =   3.0000000000000E+01
(PID.TID 0000.0001) %MON dynstat_salt_mean            =   3.0000000000000E+01
(PID.TID 0000.0001) %MON dynstat_salt_sd              =   0.0000000000000E+00
(PID.TID 0000.0001) %MON dynstat_salt_del2            =   0.0000000000000E+00
(PID.TID 0000.0001) %MON trAdv_CFL_u_max              =   1.3173179596560E-03
(PID.TID 0000.0001) %MON trAdv_CFL_v_max              =   4.3501889418758E-03
(PID.TID 0000.0001) %MON trAdv_CFL_w_max              =   5.1855165274814E-09
(PID.TID 0000.0001) %MON advcfl_uvel_max              =   1.3175725021243E-03
(PID.TID 0000.0001) %MON advcfl_vvel_max              =   4.3517446748110E-03
(PID.TID 0000.0001) %MON advcfl_wvel_max              =   1.0363383718953E-08
(PID.TID 0000.0001) %MON advcfl_W_hf_max              =   0.0000000000000E+00
(PID.TID 0000.0001) %MON pe_b_mean                    =   4.5296769518171E-07
(PID.TID 0000.0001) %MON ke_max                       =   2.6291850954256E-03
(PID.TID 0000.0001) %MON ke_mean                      =   1.2502693407809E-04
(PID.TID 0000.0001) %MON ke_vol                       =   7.2000000000000E+15
(PID.TID 0000.0001) %MON vort_r_min                   =  -7.1557978986643E-07
(PID.TID 0000.0001) %MON vort_r_max                   =   2.0580740784767E-06
(PID.TID 0000.0001) %MON vort_a_mean                  =   1.0600000000000E-04
(PID.TID 0000.0001) %MON vort_a_sd                    =   3.5281632138816E-06
(PID.TID 0000.0001) %MON vort_p_mean                  =   1.1130000000000E-04
(PID.TID 0000.0001) %MON vort_p_sd                    =   4.1125541774222E-05
(PID.TID 0000.0001) %MON surfExpan_theta_mean         =  -5.0023234937018E-20
(PID.TID 0000.0001) %MON surfExpan_salt_mean          =  -7.5031181268059E-20
(PID.TID 0000.0001) // =======================================================
(PID.TID 0000.0001) // End MONITOR dynamic field statistics
(PID.TID 0000.0001) // =======================================================
 cg2d: Sum(rhs),rhsMax =  -1.35247514822889E-04  1.19939361091292E-01
 cg2d: Sum(rhs),rhsMax =  -1.35357974698474E-04  1.19976675766340E-01
 cg2d: Sum(rhs),rhsMax =  -1.35467376149353E-04  1.20013952775841E-01
 cg2d: Sum(rhs),rhsMax =  -1.35575733193329E-04  1.20051192116310E-01
 cg2d: Sum(rhs),rhsMax =  -1.35683060377287E-04  1.20088393784325E-01
 cg2d: Sum(rhs),rhsMax =  -1.35789372554743E-04  1.20125557776522E-01
 cg2d: Sum(rhs),rhsMax =  -1.35894685074968E-04  1.20162684089599E-01
 cg2d: Sum(rhs),rhsMax =  -1.35999013353501E-04  1.20199772720310E-01
 cg2d: Sum(rhs),rhsMax =  -1.36154503047386E-04  1.20236823592722E-01
 cg2d: Sum(rhs),rhsMax =  -1.36308770330008E-04  1.20273836853702E-01
 cg2d: Sum(rhs),rhsMax =  -1.36461798870060E-04  1.20310812414277E-01
 cg2d: Sum(rhs),rhsMax =  -1.36613616342807E-04  1.20347750280482E-01
 cg2d: Sum(rhs),rhsMax =  -1.36764247278366E-04  1.20384650451464E-01
 cg2d: Sum(rhs),rhsMax =  -1.36913716612105E-04  1.20421512923338E-01
 cg2d: Sum(rhs),rhsMax =  -1.37062049410814E-04  1.20458337692499E-01
 cg2d: Sum(rhs),rhsMax =  -1.37209270475428E-04  1.20495124755559E-01
 cg2d: Sum(rhs),rhsMax =  -1.37355404608493E-04  1.20531874109325E-01
 cg2d: Sum(rhs),rhsMax =  -1.37500476856310E-04  1.20568585750935E-01
 cg2d: Sum(rhs),rhsMax =  -1.37644512814599E-04  1.20605259677895E-01
 cg2d: Sum(rhs),rhsMax =  -1.37787538448387E-04  1.20641895887953E-01
 cg2d: Sum(rhs),rhsMax =  -1.37929579723261E-04  1.20678494378926E-01
 cg2d: Sum(rhs),rhsMax =  -1.38070663073749E-04  1.20715055148582E-01
 cg2d: Sum(rhs),rhsMax =  -1.38210814984283E-04  1.20751578194608E-01
 cg2d: Sum(rhs),rhsMax =  -1.38350062460003E-04  1.20788063514651E-01
 cg2d: Sum(rhs),rhsMax =  -1.38488432131692E-04  1.20824511106373E-01
 cg2d: Sum(rhs),rhsMax =  -1.38625951114287E-04  1.20860920967505E-01
 cg2d: Sum(rhs),rhsMax =  -1.38762646275234E-04  1.20897293095875E-01
 cg2d: Sum(rhs),rhsMax =  -1.38898544602527E-04  1.20933627489410E-01
 cg2d: Sum(rhs),rhsMax =  -1.39033673250888E-04  1.20969924146127E-01
 cg2d: Sum(rhs),rhsMax =  -1.39168059115851E-04  1.21006183064118E-01
 cg2d: Sum(rhs),rhsMax =  -1.39301729037174E-04  1.21042404241533E-01
 cg2d: Sum(rhs),rhsMax =  -1.39434710037388E-04  1.21078587676574E-01
 cg2d: Sum(rhs),rhsMax =  -1.39567028879543E-04  1.21114733367492E-01
 cg2d: Sum(rhs),rhsMax =  -1.39698712165132E-04  1.21150841312587E-01
 cg2d: Sum(rhs),rhsMax =  -1.39829786324861E-04  1.21186911510212E-01
 cg2d: Sum(rhs),rhsMax =  -1.39960277887564E-04  1.21222943958773E-01
 cg2d: Sum(rhs),rhsMax =  -1.40090212995454E-04  1.21258938656740E-01
 cg2d: Sum(rhs),rhsMax =  -1.40219617637443E-04  1.21294895602641E-01
 cg2d: Sum(rhs),rhsMax =  -1.40348517858337E-04  1.21330814795069E-01
 cg2d: Sum(rhs),rhsMax =  -1.40476939253480E-04  1.21366696232673E-01
 cg2d: Sum(rhs),rhsMax =  -1.40604907233683E-04  1.21402539914171E-01
 cg2d: Sum(rhs),rhsMax =  -1.40732447402443E-04  1.21438345838336E-01
 cg2d: Sum(rhs),rhsMax =  -1.40859584681072E-04  1.21474114004000E-01
 cg2d: Sum(rhs),rhsMax =  -1.40986344216016E-04  1.21509844410053E-01
 cg2d: Sum(rhs),rhsMax =  -1.41112750886518E-04  1.21545537055444E-01
 cg2d: Sum(rhs),rhsMax =  -1.41238829304211E-04  1.21581191939179E-01
 cg2d: Sum(rhs),rhsMax =  -1.41364603964889E-04  1.21616809060321E-01
 cg2d: Sum(rhs),rhsMax =  -1.41490099314691E-04  1.21652388417995E-01
 cg2d: Sum(rhs),rhsMax =  -1.41615339619647E-04  1.21687930011381E-01
 cg2d: Sum(rhs),rhsMax =  -1.41740348835034E-04  1.21723433839720E-01
 cg2d: Sum(rhs),rhsMax =  -1.41865150964640E-04  1.21758899902314E-01
 cg2d: Sum(rhs),rhsMax =  -1.41989769896357E-04  1.21794328198519E-01
 cg2d: Sum(rhs),rhsMax =  -1.42114229428482E-04  1.21829718727756E-01
 cg2d: Sum(rhs),rhsMax =  -1.42238553043504E-04  1.21865071489499E-01
 cg2d: Sum(rhs),rhsMax =  -1.42362764364020E-04  1.21900386483285E-01
 cg2d: Sum(rhs),rhsMax =  -1.42486886801445E-04  1.21935663708707E-01
 cg2d: Sum(rhs),rhsMax =  -1.42610943609687E-04  1.21970903165417E-01
 cg2d: Sum(rhs),rhsMax =  -1.42734958239262E-04  1.22006104853124E-01
 cg2d: Sum(rhs),rhsMax =  -1.42858953664244E-04  1.22041268771600E-01
 cg2d: Sum(rhs),rhsMax =  -1.42982953098214E-04  1.22076394920669E-01
 cg2d: Sum(rhs),rhsMax =  -1.43106979570960E-04  1.22111483300219E-01
 cg2d: Sum(rhs),rhsMax =  -1.43231055849354E-04  1.22146533910194E-01
 cg2d: Sum(rhs),rhsMax =  -1.43355204989815E-04  1.22181546750597E-01
 cg2d: Sum(rhs),rhsMax =  -1.43479449725233E-04  1.22216521821488E-01
 cg2d: Sum(rhs),rhsMax =  -1.43603812713220E-04  1.22251459122989E-01
 cg2d: Sum(rhs),rhsMax =  -1.43728316608084E-04  1.22286358655275E-01
 cg2d: Sum(rhs),rhsMax =  -1.43852984002589E-04  1.22321220418585E-01
 cg2d: Sum(rhs),rhsMax =  -1.43977837358505E-04  1.22356044413213E-01
 cg2d: Sum(rhs),rhsMax =  -1.44102899133337E-04  1.22390830639510E-01
 cg2d: Sum(rhs),rhsMax =  -1.44228191511614E-04  1.22425579097888E-01
 cg2d: Sum(rhs),rhsMax =  -1.44353736814395E-04  1.22460289788816E-01
 cg2d: Sum(rhs),rhsMax =  -1.44479557175911E-04  1.22494962712822E-01
(PID.TID 0000.0001)      cg2d_init_res =   2.74683033252401E-03
(PID.TID 0000.0001)      cg2d_iters(min,last) =      -1      82
(PID.TID 0000.0001)      cg2d_last_res =   9.21202628161794E-08
(PID.TID 0000.0001) // =======================================================
(PID.TID 0000.0001) // Begin MONITOR dynamic field statistics
(PID.TID 0000.0001) // =======================================================
(PID.TID 0000.0001) %MON time_tsnumber                =                  2232
(PID.TID 0000.0001) %MON time_secondsf                =   2.6784000000000E+06
(PID.TID 0000.0001) %MON dynstat_eta_max              =   6.1790604844484E-02
(PID.TID 0000.0001) %MON dynstat_eta_min              =  -2.2520307242085E-02
(PID.TID 0000.0001) %MON dynstat_eta_mean             =   8.8592375784035E-08
(PID.TID 0000.0001) %MON dynstat_eta_sd               =   2.1383668817842E-02
(PID.TID 0000.0001) %MON dynstat_eta_del2             =   1.1348177595879E-05
(PID.TID 0000.0001) %MON dynstat_uvel_max             =   2.2277547350237E-02
(PID.TID 0000.0001) %MON dynstat_uvel_min             =  -1.9185437378276E-02
(PID.TID 0000.0001) %MON dynstat_uvel_mean            =   8.2291160090230E-09
(PID.TID 0000.0001) %MON dynstat_uvel_sd              =   7.3761350675261E-03
(PID.TID 0000.0001) %MON dynstat_uvel_del2            =   8.1342694377494E-06
(PID.TID 0000.0001) %MON dynstat_vvel_max             =   7.4331667239873E-02
(PID.TID 0000.0001) %MON dynstat_vvel_min             =  -1.6275803784752E-02
(PID.TID 0000.0001) %MON dynstat_vvel_mean            =   3.1817185211885E-08
(PID.TID 0000.0001) %MON dynstat_vvel_sd              =   1.4345442307627E-02
(PID.TID 0000.0001) %MON dynstat_vvel_del2            =   4.9430803431852E-05
(PID.TID 0000.0001) %MON dynstat_wvel_max             =   2.0390011401614E-08
(PID.TID 0000.0001) %MON dynstat_wvel_min             =  -2.0208907348569E-08
(PID.TID 0000.0001) %MON dynstat_wvel_mean            =  -6.3652957275432E-22
(PID.TID 0000.0001) %MON dynstat_wvel_sd              =   8.2775847740798E-09
(PID.TID 0000.0001) %MON dynstat_wvel_del2            =   5.6208594597445E-12
(PID.TID 0000.0001) %MON dynstat_theta_max            =   2.0000000000000E+01
(PID.TID 0000.0001) %MON dynstat_theta_min            =   2.0000000000000E+01
(PID.TID 0000.0001) %MON dynstat_theta_mean           =   2.0000000000000E+01
(PID.TID 0000.0001) %MON dynstat_theta_sd             =   0.0000000000000E+00
(PID.TID 0000.0001) %MON dynstat_theta_del2           =   0.0000000000000E+00
(PID.TID 0000.0001) %MON dynstat_salt_max             =   3.0000000000000E+01
(PID.TID 0000.0001) %MON dynstat_salt_min             =   3.0000000000000E+01
(PID.TID 0000.0001) %MON dynstat_salt_mean            =   3.0000000000000E+01
(PID.TID 0000.0001) %MON dynstat_salt_sd              =   0.0000000000000E+00
(PID.TID 0000.0001) %MON dynstat_salt_del2            =   0.0000000000000E+00
(PID.TID 0000.0001) %MON trAdv_CFL_u_max              =   1.3363648709556E-03
(PID.TID 0000.0001) %MON trAdv_CFL_v_max              =   4.4584503553687E-03
(PID.TID 0000.0001) %MON trAdv_CFL_w_max              =   4.8977711266838E-09
(PID.TID 0000.0001) %MON advcfl_uvel_max              =   1.3366528410142E-03
(PID.TID 0000.0001) %MON advcfl_vvel_max              =   4.4599000343924E-03
(PID.TID 0000.0001) %MON advcfl_wvel_max              =   9.7872054727748E-09
(PID.TID 0000.0001) %MON advcfl_W_hf_max              =   0.0000000000000E+00
(PID.TID 0000.0001) %MON pe_b_mean                    =   4.4857332756875E-07
(PID.TID 0000.0001) %MON ke_max                       =   2.7604072936464E-03
(PID.TID 0000.0001) %MON ke_mean                      =   1.2793121607232E-04
(PID.TID 0000.0001) %MON ke_vol                       =   7.2000000000000E+15
(PID.TID 0000.0001) %MON vort_r_min                   =  -7.5128925772083E-07
(PID.TID 0000.0001) %MON vort_r_max                   =   2.0957338344118E-06
(PID.TID 0000.0001) %MON vort_a_mean                  =   1.0600000000000E-04
(PID.TID 0000.0001) %MON vort_a_sd                    =   3.5287014270355E-06
(PID.TID 0000.0001) %MON vort_p_mean                  =   1.1130000000000E-04
(PID.TID 0000.0001) %MON vort_p_sd                    =   4.1127450013669E-05
(PID.TID 0000.0001) %MON surfExpan_theta_mean         =  -1.2740070726775E-20
(PID.TID 0000.0001) %MON surfExpan_salt_mean          =  -1.9108783691182E-20
(PID.TID 0000.0001) // =======================================================
(PID.TID 0000.0001) // End MONITOR dynamic field statistics
(PID.TID 0000.0001) // =======================================================
 cg2d: Sum(rhs),rhsMax =  -1.44605674642257E-04  1.22529597870490E-01
 cg2d: Sum(rhs),rhsMax =  -1.44732110913583E-04  1.22564195262464E-01
 cg2d: Sum(rhs),rhsMax =  -1.44858888039829E-04  1.22598754889447E-01
 cg2d: Sum(rhs),rhsMax =  -1.44986027592846E-04  1.22633276752196E-01
 cg2d: Sum(rhs),rhsMax =  -1.45113551190901E-04  1.22667760851531E-01
 cg2d: Sum(rhs),rhsMax =  -1.45241480322448E-04  1.22702207188327E-01
 cg2d: Sum(rhs),rhsMax =  -1.45369836196532E-04  1.22736615763517E-01
 cg2d: Sum(rhs),rhsMax =  -1.45498640153695E-04  1.22770986578093E-01
 cg2d: Sum(rhs),rhsMax =  -1.45627913092247E-04  1.22805319633104E-01
 cg2d: Sum(rhs),rhsMax =  -1.45757675995530E-04  1.22839614929659E-01
 cg2d: Sum(rhs),rhsMax =  -1.45887949538646E-04  1.22873872468921E-01
 cg2d: Sum(rhs),rhsMax =  -1.46018754346086E-04  1.22908092252115E-01
 cg2d: Sum(rhs),rhsMax =  -1.46150110913431E-04  1.22942274280520E-01
 cg2d: Sum(rhs),rhsMax =  -1.46282039400296E-04  1.22976418555475E-01
 cg2d: Sum(rhs),rhsMax =  -1.46414559858410E-04  1.23010525078377E-01
 cg2d: Sum(rhs),rhsMax =  -1.46547692312041E-04  1.23044593850680E-01
 cg2d: Sum(rhs),rhsMax =  -1.46681456410589E-04  1.23078624873895E-01
 cg2d: Sum(rhs),rhsMax =  -1.46815871585491E-04  1.23112618149593E-01
 cg2d: Sum(rhs),rhsMax =  -1.46950957244262E-04  1.23146573679399E-01
 cg2d: Sum(rhs),rhsMax =  -1.47086732484041E-04  1.23180491464999E-01
 cg2d: Sum(rhs),rhsMax =  -1.47223216245375E-04  1.23214371508134E-01
 cg2d: Sum(rhs),rhsMax =  -1.47360427050386E-04  1.23248213810605E-01
 cg2d: Sum(rhs),rhsMax =  -1.47498383653751E-04  1.23282018374268E-01
 cg2d: Sum(rhs),rhsMax =  -1.47637104201063E-04  1.23315785201038E-01
 cg2d: Sum(rhs),rhsMax =  -1.47776606783077E-04  1.23349514292888E-01
 cg2d: Sum(rhs),rhsMax =  -1.47916909149374E-04  1.23383205651847E-01
 cg2d: Sum(rhs),rhsMax =  -1.48058028854653E-04  1.23416859280001E-01
 cg2d: Sum(rhs),rhsMax =  -1.48199983412384E-04  1.23450475179496E-01
 cg2d: Sum(rhs),rhsMax =  -1.48342789704581E-04  1.23484053352533E-01
 cg2d: Sum(rhs),rhsMax =  -1.48486464709834E-04  1.23517593801370E-01
 cg2d: Sum(rhs),rhsMax =  -1.48631025067886E-04  1.23551096528324E-01
 cg2d: Sum(rhs),rhsMax =  -1.48776487132449E-04  1.23584561535770E-01
 cg2d: Sum(rhs),rhsMax =  -1.48922867123443E-04  1.23617988826136E-01
 cg2d: Sum(rhs),rhsMax =  -1.49070180793842E-04  1.23651378401911E-01
 cg2d: Sum(rhs),rhsMax =  -1.49218443783024E-04  1.23684730265640E-01
 cg2d: Sum(rhs),rhsMax =  -1.49367671598750E-04  1.23718044419926E-01
 cg2d: Sum(rhs),rhsMax =  -1.49517879233555E-04  1.23751320867426E-01
 cg2d: Sum(rhs),rhsMax =  -1.49669081353570E-04  1.23784559610859E-01
 cg2d: Sum(rhs),rhsMax =  -1.49821292900039E-04  1.23817760652997E-01
 cg2d: Sum(rhs),rhsMax =  -1.49974527908959E-04  1.23850923996670E-01
 cg2d: Sum(rhs),rhsMax =  -1.50128800647216E-04  1.23884049644766E-01
 cg2d: Sum(rhs),rhsMax =  -1.50284124724498E-04  1.23917137600227E-01
 cg2d: Sum(rhs),rhsMax =  -1.50440513797461E-04  1.23950187866058E-01
 cg2d: Sum(rhs),rhsMax =  -1.50597980989211E-04  1.23983200445313E-01
 cg2d: Sum(rhs),rhsMax =  -1.50756539493210E-04  1.24016175341110E-01
 cg2d: Sum(rhs),rhsMax =  -1.50916201822985E-04  1.24049112556618E-01
 cg2d: Sum(rhs),rhsMax =  -1.51076980472470E-04  1.24082012095068E-01
 cg2d: Sum(rhs),rhsMax =  -1.51238887699033E-04  1.24114873959743E-01
 cg2d: Sum(rhs),rhsMax =  -1.51401935464911E-04  1.24147698153985E-01
 cg2d: Sum(rhs),rhsMax =  -1.51566135414859E-04  1.24180484681193E-01
 cg2d: Sum(rhs),rhsMax =  -1.51731498845360E-04  1.24213233544823E-01
 cg2d: Sum(rhs),rhsMax =  -1.51898036827119E-04  1.24245944748386E-01
 cg2d: Sum(rhs),rhsMax =  -1.52065760285577E-04  1.24278618295449E-01
 cg2d: Sum(rhs),rhsMax =  -1.52234679689008E-04  1.24311254189639E-01
 cg2d: Sum(rhs),rhsMax =  -1.52404805580040E-04  1.24343852434637E-01
 cg2d: Sum(rhs),rhsMax =  -1.52576147784012E-04  1.24376413034178E-01
 cg2d: Sum(rhs),rhsMax =  -1.52748716083308E-04  1.24408935992062E-01
 cg2d: Sum(rhs),rhsMax =  -1.52922520157285E-04  1.24441421312134E-01
 cg2d: Sum(rhs),rhsMax =  -1.53097569242977E-04  1.24473868998304E-01
 cg2d: Sum(rhs),rhsMax =  -1.53273872255723E-04  1.24506279054536E-01
 cg2d: Sum(rhs),rhsMax =  -1.53451438051182E-04  1.24538651484848E-01
 cg2d: Sum(rhs),rhsMax =  -1.53630274930784E-04  1.24570986293316E-01
 cg2d: Sum(rhs),rhsMax =  -1.53810391126956E-04  1.24603283484074E-01
 cg2d: Sum(rhs),rhsMax =  -1.53991794760958E-04  1.24635543061310E-01
 cg2d: Sum(rhs),rhsMax =  -1.54174493438576E-04  1.24667765029267E-01
 cg2d: Sum(rhs),rhsMax =  -1.54358494674522E-04  1.24699949392247E-01
 cg2d: Sum(rhs),rhsMax =  -1.54543805683499E-04  1.24732096154607E-01
 cg2d: Sum(rhs),rhsMax =  -1.54730433572850E-04  1.24764205320760E-01
 cg2d: Sum(rhs),rhsMax =  -1.54918384908014E-04  1.24796276895174E-01
 cg2d: Sum(rhs),rhsMax =  -1.55107666077080E-04  1.24828310882375E-01
 cg2d: Sum(rhs),rhsMax =  -1.55298283413510E-04  1.24860307286944E-01
 cg2d: Sum(rhs),rhsMax =  -1.55490242957661E-04  1.24892266113517E-01
(PID.TID 0000.0001)      cg2d_init_res =   2.61204317881868E-03
(PID.TID 0000.0001)      cg2d_iters(min,last) =      -1      82
(PID.TID 0000.0001)      cg2d_last_res =   9.36323111573908E-08
(PID.TID 0000.0001) // =======================================================
(PID.TID 0000.0001) // Begin MONITOR dynamic field statistics
(PID.TID 0000.0001) // =======================================================
(PID.TID 0000.0001) %MON time_tsnumber                =                  2304
(PID.TID 0000.0001) %MON time_secondsf                =   2.7648000000000E+06
(PID.TID 0000.0001) %MON dynstat_eta_max              =   6.2500946036197E-02
(PID.TID 0000.0001) %MON dynstat_eta_min              =  -2.2114608985248E-02
(PID.TID 0000.0001) %MON dynstat_eta_mean             =   9.7243205149287E-08
(PID.TID 0000.0001) %MON dynstat_eta_sd               =   2.1234473471663E-02
(PID.TID 0000.0001) %MON dynstat_eta_del2             =   1.1752680974503E-05
(PID.TID 0000.0001) %MON dynstat_uvel_max             =   2.2602139217855E-02
(PID.TID 0000.0001) %MON dynstat_uvel_min             =  -1.9146066736601E-02
(PID.TID 0000.0001) %MON dynstat_uvel_mean            =   5.1396525692571E-08
(PID.TID 0000.0001) %MON dynstat_uvel_sd              =   7.2903947504691E-03
(PID.TID 0000.0001) %MON dynstat_uvel_del2            =   7.9806480867087E-06
(PID.TID 0000.0001) %MON dynstat_vvel_max             =   7.6005800896950E-02
(PID.TID 0000.0001) %MON dynstat_vvel_min             =  -1.7119764684720E-02
(PID.TID 0000.0001) %MON dynstat_vvel_mean            =   3.1816717159514E-08
(PID.TID 0000.0001) %MON dynstat_vvel_sd              =   1.4572132241638E-02
(PID.TID 0000.0001) %MON dynstat_vvel_del2            =   5.0962297952433E-05
(PID.TID 0000.0001) %MON dynstat_wvel_max             =   1.9132482606219E-08
(PID.TID 0000.0001) %MON dynstat_wvel_min             =  -2.0901445422205E-08
(PID.TID 0000.0001) %MON dynstat_wvel_mean            =  -3.1649003378536E-21
(PID.TID 0000.0001) %MON dynstat_wvel_sd              =   8.2516785959503E-09
(PID.TID 0000.0001) %MON dynstat_wvel_del2            =   5.5556348304577E-12
(PID.TID 0000.0001) %MON dynstat_theta_max            =   2.0000000000000E+01
(PID.TID 0000.0001) %MON dynstat_theta_min            =   2.0000000000000E+01
(PID.TID 0000.0001) %MON dynstat_theta_mean           =   2.0000000000000E+01
(PID.TID 0000.0001) %MON dynstat_theta_sd             =   0.0000000000000E+00
(PID.TID 0000.0001) %MON dynstat_theta_del2           =   0.0000000000000E+00
(PID.TID 0000.0001) %MON dynstat_salt_max             =   3.0000000000000E+01
(PID.TID 0000.0001) %MON dynstat_salt_min             =   3.0000000000000E+01
(PID.TID 0000.0001) %MON dynstat_salt_mean            =   3.0000000000000E+01
(PID.TID 0000.0001) %MON dynstat_salt_sd              =   0.0000000000000E+00
(PID.TID 0000.0001) %MON dynstat_salt_del2            =   0.0000000000000E+00
(PID.TID 0000.0001) %MON trAdv_CFL_u_max              =   1.3558747285927E-03
(PID.TID 0000.0001) %MON trAdv_CFL_v_max              =   4.5590062387690E-03
(PID.TID 0000.0001) %MON trAdv_CFL_w_max              =   4.5960885277949E-09
(PID.TID 0000.0001) %MON advcfl_uvel_max              =   1.3561283530713E-03
(PID.TID 0000.0001) %MON advcfl_vvel_max              =   4.5603480538170E-03
(PID.TID 0000.0001) %MON advcfl_wvel_max              =   1.0032693802658E-08
(PID.TID 0000.0001) %MON advcfl_W_hf_max              =   0.0000000000000E+00
(PID.TID 0000.0001) %MON pe_b_mean                    =   4.4233570921930E-07
(PID.TID 0000.0001) %MON ke_max                       =   2.8849631702856E-03
(PID.TID 0000.0001) %MON ke_mean                      =   1.3053597273047E-04
(PID.TID 0000.0001) %MON ke_vol                       =   7.2000000000000E+15
(PID.TID 0000.0001) %MON vort_r_min                   =  -7.8671715475051E-07
(PID.TID 0000.0001) %MON vort_r_max                   =   2.1300300782573E-06
(PID.TID 0000.0001) %MON vort_a_mean                  =   1.0600000000000E-04
(PID.TID 0000.0001) %MON vort_a_sd                    =   3.5292262637078E-06
(PID.TID 0000.0001) %MON vort_p_mean                  =   1.1130000000000E-04
(PID.TID 0000.0001) %MON vort_p_sd                    =   4.1129241959035E-05
(PID.TID 0000.0001) %MON surfExpan_theta_mean         =  -6.3323168930651E-20
(PID.TID 0000.0001) %MON surfExpan_salt_mean          =  -9.4983611099843E-20
(PID.TID 0000.0001) // =======================================================
(PID.TID 0000.0001) // End MONITOR dynamic field statistics
(PID.TID 0000.0001) // =======================================================
 cg2d: Sum(rhs),rhsMax =  -1.55683550495609E-04  1.24924187366788E-01
 cg2d: Sum(rhs),rhsMax =  -1.55878211521071E-04  1.24956071051504E-01
 cg2d: Sum(rhs),rhsMax =  -1.56074231350287E-04  1.24987917172471E-01
 cg2d: Sum(rhs),rhsMax =  -1.56271614988610E-04  1.25019725734549E-01
 cg2d: Sum(rhs),rhsMax =  -1.56470367302538E-04  1.25051496742654E-01
 cg2d: Sum(rhs),rhsMax =  -1.56736203244368E-04  1.25083229909137E-01
 cg2d: Sum(rhs),rhsMax =  -1.57003504748650E-04  1.25114925844171E-01
 cg2d: Sum(rhs),rhsMax =  -1.57272269362889E-04  1.25146584221721E-01
 cg2d: Sum(rhs),rhsMax =  -1.57542491606373E-04  1.25178205058920E-01
 cg2d: Sum(rhs),rhsMax =  -1.57814176858400E-04  1.25209788368126E-01
 cg2d: Sum(rhs),rhsMax =  -1.58087330787529E-04  1.25241334155718E-01
 cg2d: Sum(rhs),rhsMax =  -1.58361958445577E-04  1.25272842426857E-01
 cg2d: Sum(rhs),rhsMax =  -1.58638064259845E-04  1.25304313186270E-01
 cg2d: Sum(rhs),rhsMax =  -1.58915651812383E-04  1.25335746438673E-01
 cg2d: Sum(rhs),rhsMax =  -1.59194724574979E-04  1.25367142189079E-01
 cg2d: Sum(rhs),rhsMax =  -1.59475285319854E-04  1.25398500442868E-01
 cg2d: Sum(rhs),rhsMax =  -1.59757336876612E-04  1.25429821205691E-01
 cg2d: Sum(rhs),rhsMax =  -1.60040881869551E-04  1.25461104483335E-01
 cg2d: Sum(rhs),rhsMax =  -1.60325922825014E-04  1.25492350281621E-01
 cg2d: Sum(rhs),rhsMax =  -1.60612462086445E-04  1.25523558606380E-01
 cg2d: Sum(rhs),rhsMax =  -1.60900501855908E-04  1.25554729463434E-01
 cg2d: Sum(rhs),rhsMax =  -1.61190044090622E-04  1.25585862858637E-01
 cg2d: Sum(rhs),rhsMax =  -1.61481090526586E-04  1.25616958797879E-01
 cg2d: Sum(rhs),rhsMax =  -1.61773642744891E-04  1.25648017287115E-01
 cg2d: Sum(rhs),rhsMax =  -1.62067702057599E-04  1.25679038332348E-01
 cg2d: Sum(rhs),rhsMax =  -1.62363269645117E-04  1.25710021939647E-01
 cg2d: Sum(rhs),rhsMax =  -1.62660346626277E-04  1.25740968115137E-01
 cg2d: Sum(rhs),rhsMax =  -1.62958933690727E-04  1.25771876865002E-01
 cg2d: Sum(rhs),rhsMax =  -1.63259031642649E-04  1.25802748195484E-01
 cg2d: Sum(rhs),rhsMax =  -1.63560640971010E-04  1.25833582112885E-01
 cg2d: Sum(rhs),rhsMax =  -1.63863762133369E-04  1.25864378623565E-01
 cg2d: Sum(rhs),rhsMax =  -1.64168395093495E-04  1.25895137733936E-01
 cg2d: Sum(rhs),rhsMax =  -1.64474540107280E-04  1.25925859450465E-01
 cg2d: Sum(rhs),rhsMax =  -1.64782196872486E-04  1.25956543779671E-01
 cg2d: Sum(rhs),rhsMax =  -1.65091365051367E-04  1.25987190728123E-01
 cg2d: Sum(rhs),rhsMax =  -1.65402044467462E-04  1.26017800302446E-01
 cg2d: Sum(rhs),rhsMax =  -1.65714234176060E-04  1.26048372509317E-01
 cg2d: Sum(rhs),rhsMax =  -1.66027933758116E-04  1.26078907355466E-01
 cg2d: Sum(rhs),rhsMax =  -1.66343142158930E-04  1.26109404847685E-01
 cg2d: Sum(rhs),rhsMax =  -1.66659858416924E-04  1.26139864992815E-01
 cg2d: Sum(rhs),rhsMax =  -1.66978081393902E-04  1.26170287797756E-01
 cg2d: Sum(rhs),rhsMax =  -1.67297809749369E-04  1.26200673269461E-01
 cg2d: Sum(rhs),rhsMax =  -1.67619042133995E-04  1.26231021414939E-01
 cg2d: Sum(rhs),rhsMax =  -1.67941776966360E-04  1.26261332241250E-01
 cg2d: Sum(rhs),rhsMax =  -1.68266012524097E-04  1.26291605755512E-01
 cg2d: Sum(rhs),rhsMax =  -1.68591746989652E-04  1.26321841964893E-01
 cg2d: Sum(rhs),rhsMax =  -1.68918978535487E-04  1.26352040876616E-01
 cg2d: Sum(rhs),rhsMax =  -1.69247705072585E-04  1.26382202497959E-01
 cg2d: Sum(rhs),rhsMax =  -1.69577924461684E-04  1.26412326836253E-01
 cg2d: Sum(rhs),rhsMax =  -1.69909634305954E-04  1.26442413898883E-01
 cg2d: Sum(rhs),rhsMax =  -1.70242832394035E-04  1.26472463693289E-01
 cg2d: Sum(rhs),rhsMax =  -1.70577516106331E-04  1.26502476226967E-01
 cg2d: Sum(rhs),rhsMax =  -1.70913682971892E-04  1.26532451507463E-01
 cg2d: Sum(rhs),rhsMax =  -1.71251330099326E-04  1.26562389542378E-01
 cg2d: Sum(rhs),rhsMax =  -1.71590454757464E-04  1.26592290339369E-01
 cg2d: Sum(rhs),rhsMax =  -1.71931054096954E-04  1.26622153906145E-01
 cg2d: Sum(rhs),rhsMax =  -1.72273125037966E-04  1.26651980250467E-01
 cg2d: Sum(rhs),rhsMax =  -1.72616664440324E-04  1.26681769380153E-01
 cg2d: Sum(rhs),rhsMax =  -1.72961669247729E-04  1.26711521303074E-01
 cg2d: Sum(rhs),rhsMax =  -1.73308136092853E-04  1.26741236027152E-01
 cg2d: Sum(rhs),rhsMax =  -1.73656061512388E-04  1.26770913560366E-01
 cg2d: Sum(rhs),rhsMax =  -1.74005442148502E-04  1.26800553910744E-01
 cg2d: Sum(rhs),rhsMax =  -1.74356274437604E-04  1.26830157086374E-01
 cg2d: Sum(rhs),rhsMax =  -1.74708554698317E-04  1.26859723095391E-01
 cg2d: Sum(rhs),rhsMax =  -1.75062279277273E-04  1.26889251945989E-01
 cg2d: Sum(rhs),rhsMax =  -1.75417444212869E-04  1.26918743646410E-01
 cg2d: Sum(rhs),rhsMax =  -1.75774045760804E-04  1.26948198204952E-01
 cg2d: Sum(rhs),rhsMax =  -1.76132080002522E-04  1.26977615629968E-01
 cg2d: Sum(rhs),rhsMax =  -1.76491542906171E-04  1.27006995929861E-01
 cg2d: Sum(rhs),rhsMax =  -1.76852430296063E-04  1.27036339113088E-01
 cg2d: Sum(rhs),rhsMax =  -1.77214738021790E-04  1.27065645188162E-01
 cg2d: Sum(rhs),rhsMax =  -1.77578461882932E-04  1.27094914163646E-01
(PID.TID 0000.0001)      cg2d_init_res =   2.48799734880349E-03
(PID.TID 0000.0001)      cg2d_iters(min,last) =      -1      81
(PID.TID 0000.0001)      cg2d_last_res =   9.88641152411057E-08
(PID.TID 0000.0001) // =======================================================
(PID.TID 0000.0001) // Begin MONITOR dynamic field statistics
(PID.TID 0000.0001) // =======================================================
(PID.TID 0000.0001) %MON time_tsnumber                =                  2376
(PID.TID 0000.0001) %MON time_secondsf                =   2.8512000000000E+06
(PID.TID 0000.0001) %MON dynstat_eta_max              =   6.3093374899994E-02
(PID.TID 0000.0001) %MON dynstat_eta_min              =  -2.1708631989340E-02
(PID.TID 0000.0001) %MON dynstat_eta_mean             =   1.1310463943741E-07
(PID.TID 0000.0001) %MON dynstat_eta_sd               =   2.1044121173000E-02
(PID.TID 0000.0001) %MON dynstat_eta_del2             =   1.2146587318413E-05
(PID.TID 0000.0001) %MON dynstat_uvel_max             =   2.2886047974290E-02
(PID.TID 0000.0001) %MON dynstat_uvel_min             =  -1.9114044211460E-02
(PID.TID 0000.0001) %MON dynstat_uvel_mean            =   9.2130745899811E-08
(PID.TID 0000.0001) %MON dynstat_uvel_sd              =   7.1977876595942E-03
(PID.TID 0000.0001) %MON dynstat_uvel_del2            =   7.8299979363531E-06
(PID.TID 0000.0001) %MON dynstat_vvel_max             =   7.7549851889901E-02
(PID.TID 0000.0001) %MON dynstat_vvel_min             =  -1.7908992321446E-02
(PID.TID 0000.0001) %MON dynstat_vvel_mean            =   3.1483045437043E-08
(PID.TID 0000.0001) %MON dynstat_vvel_sd              =   1.4777993049837E-02
(PID.TID 0000.0001) %MON dynstat_vvel_del2            =   5.2428090740409E-05
(PID.TID 0000.0001) %MON dynstat_wvel_max             =   1.7849290764425E-08
(PID.TID 0000.0001) %MON dynstat_wvel_min             =  -2.1537846654537E-08
(PID.TID 0000.0001) %MON dynstat_wvel_mean            =  -8.7518350887371E-22
(PID.TID 0000.0001) %MON dynstat_wvel_sd              =   8.2385408824371E-09
(PID.TID 0000.0001) %MON dynstat_wvel_del2            =   5.4880198178327E-12
(PID.TID 0000.0001) %MON dynstat_theta_max            =   2.0000000000000E+01
(PID.TID 0000.0001) %MON dynstat_theta_min            =   2.0000000000000E+01
(PID.TID 0000.0001) %MON dynstat_theta_mean           =   2.0000000000000E+01
(PID.TID 0000.0001) %MON dynstat_theta_sd             =   0.0000000000000E+00
(PID.TID 0000.0001) %MON dynstat_theta_del2           =   0.0000000000000E+00
(PID.TID 0000.0001) %MON dynstat_salt_max             =   3.0000000000000E+01
(PID.TID 0000.0001) %MON dynstat_salt_min             =   3.0000000000000E+01
(PID.TID 0000.0001) %MON dynstat_salt_mean            =   3.0000000000000E+01
(PID.TID 0000.0001) %MON dynstat_salt_sd              =   0.0000000000000E+00
(PID.TID 0000.0001) %MON dynstat_salt_del2            =   0.0000000000000E+00
(PID.TID 0000.0001) %MON trAdv_CFL_u_max              =   1.3729426834020E-03
(PID.TID 0000.0001) %MON trAdv_CFL_v_max              =   4.6517580779736E-03
(PID.TID 0000.0001) %MON trAdv_CFL_w_max              =   4.2881894339807E-09
(PID.TID 0000.0001) %MON advcfl_uvel_max              =   1.3731628784574E-03
(PID.TID 0000.0001) %MON advcfl_vvel_max              =   4.6529911133941E-03
(PID.TID 0000.0001) %MON advcfl_wvel_max              =   1.0338166394178E-08
(PID.TID 0000.0001) %MON advcfl_W_hf_max              =   0.0000000000000E+00
(PID.TID 0000.0001) %MON pe_b_mean                    =   4.3444079027352E-07
(PID.TID 0000.0001) %MON ke_max                       =   3.0033708735327E-03
(PID.TID 0000.0001) %MON ke_mean                      =   1.3284696934336E-04
(PID.TID 0000.0001) %MON ke_vol                       =   7.2000000000000E+15
(PID.TID 0000.0001) %MON vort_r_min                   =  -8.2175613655382E-07
(PID.TID 0000.0001) %MON vort_r_max                   =   2.1610223508409E-06
(PID.TID 0000.0001) %MON vort_a_mean                  =   1.0600000000000E-04
(PID.TID 0000.0001) %MON vort_a_sd                    =   3.5297353956211E-06
(PID.TID 0000.0001) %MON vort_p_mean                  =   1.1130000000000E-04
(PID.TID 0000.0001) %MON vort_p_sd                    =   4.1130924083378E-05
(PID.TID 0000.0001) %MON surfExpan_theta_mean         =  -1.7553691833427E-20
(PID.TID 0000.0001) %MON surfExpan_salt_mean          =  -2.6329328840625E-20
(PID.TID 0000.0001) // =======================================================
(PID.TID 0000.0001) // End MONITOR dynamic field statistics
(PID.TID 0000.0001) // =======================================================
 cg2d: Sum(rhs),rhsMax =  -1.77943597585731E-04  1.27124146048155E-01
 cg2d: Sum(rhs),rhsMax =  -1.78310140740856E-04  1.27153340850360E-01
 cg2d: Sum(rhs),rhsMax =  -1.78678086984765E-04  1.27182498578984E-01
 cg2d: Sum(rhs),rhsMax =  -1.79047431697044E-04  1.27211619242804E-01
 cg2d: Sum(rhs),rhsMax =  -1.79418170492821E-04  1.27240702850647E-01
 cg2d: Sum(rhs),rhsMax =  -1.79790298689674E-04  1.27269749411395E-01
 cg2d: Sum(rhs),rhsMax =  -1.80163811605500E-04  1.27298758933982E-01
 cg2d: Sum(rhs),rhsMax =  -1.80538704605764E-04  1.27327731427396E-01
 cg2d: Sum(rhs),rhsMax =  -1.80914972865968E-04  1.27356666900676E-01
 cg2d: Sum(rhs),rhsMax =  -1.81292611541749E-04  1.27385565362914E-01
 cg2d: Sum(rhs),rhsMax =  -1.81671615882322E-04  1.27414426823257E-01
 cg2d: Sum(rhs),rhsMax =  -1.82051980719837E-04  1.27443251290900E-01
 cg2d: Sum(rhs),rhsMax =  -1.82433701338966E-04  1.27472038775094E-01
 cg2d: Sum(rhs),rhsMax =  -1.82816772670968E-04  1.27500789285142E-01
 cg2d: Sum(rhs),rhsMax =  -1.83201189537903E-04  1.27529502830400E-01
 cg2d: Sum(rhs),rhsMax =  -1.83586946967101E-04  1.27558179420275E-01
 cg2d: Sum(rhs),rhsMax =  -1.83974039831206E-04  1.27586819064224E-01
 cg2d: Sum(rhs),rhsMax =  -1.84362462751002E-04  1.27615421771763E-01
 cg2d: Sum(rhs),rhsMax =  -1.84752210650342E-04  1.27643987552455E-01
 cg2d: Sum(rhs),rhsMax =  -1.85143278338548E-04  1.27672516415916E-01
 cg2d: Sum(rhs),rhsMax =  -1.85535660489401E-04  1.27701008371816E-01
 cg2d: Sum(rhs),rhsMax =  -1.85929351605836E-04  1.27729463429875E-01
 cg2d: Sum(rhs),rhsMax =  -1.86324346408703E-04  1.27757881599866E-01
 cg2d: Sum(rhs),rhsMax =  -1.86720639657192E-04  1.27786262891614E-01
 cg2d: Sum(rhs),rhsMax =  -1.87118225704609E-04  1.27814607314997E-01
 cg2d: Sum(rhs),rhsMax =  -1.87517099355363E-04  1.27842914879943E-01
 cg2d: Sum(rhs),rhsMax =  -1.87917254730968E-04  1.27871185596433E-01
 cg2d: Sum(rhs),rhsMax =  -1.88318686607518E-04  1.27899419474500E-01
 cg2d: Sum(rhs),rhsMax =  -1.88721389332668E-04  1.27927616524228E-01
 cg2d: Sum(rhs),rhsMax =  -1.89125357304099E-04  1.27955776755754E-01
 cg2d: Sum(rhs),rhsMax =  -1.89530585005228E-04  1.27983900179266E-01
 cg2d: Sum(rhs),rhsMax =  -1.89937066749745E-04  1.28011986805003E-01
 cg2d: Sum(rhs),rhsMax =  -1.90344796830218E-04  1.28040036643257E-01
 cg2d: Sum(rhs),rhsMax =  -1.90753769777841E-04  1.28068049704371E-01
 cg2d: Sum(rhs),rhsMax =  -1.91163979710668E-04  1.28096025998739E-01
 cg2d: Sum(rhs),rhsMax =  -1.91575421027886E-04  1.28123965536806E-01
 cg2d: Sum(rhs),rhsMax =  -1.91988087863805E-04  1.28151868329071E-01
 cg2d: Sum(rhs),rhsMax =  -1.92401974561303E-04  1.28179734386082E-01
 cg2d: Sum(rhs),rhsMax =  -1.92817075242006E-04  1.28207563718439E-01
 cg2d: Sum(rhs),rhsMax =  -1.93233384261838E-04  1.28235356336793E-01
 cg2d: Sum(rhs),rhsMax =  -1.93650895662423E-04  1.28263112251848E-01
 cg2d: Sum(rhs),rhsMax =  -1.94069603702303E-04  1.28290831474357E-01
 cg2d: Sum(rhs),rhsMax =  -1.94489502522550E-04  1.28318514015124E-01
 cg2d: Sum(rhs),rhsMax =  -1.94910586279459E-04  1.28346159885007E-01
 cg2d: Sum(rhs),rhsMax =  -1.95332849008256E-04  1.28373769094912E-01
 cg2d: Sum(rhs),rhsMax =  -1.95756284943105E-04  1.28401341655797E-01
 cg2d: Sum(rhs),rhsMax =  -1.96180888160996E-04  1.28428877578672E-01
 cg2d: Sum(rhs),rhsMax =  -1.96606652644734E-04  1.28456376874597E-01
 cg2d: Sum(rhs),rhsMax =  -1.97033572631804E-04  1.28483839554682E-01
 cg2d: Sum(rhs),rhsMax =  -1.97461641998088E-04  1.28511265630088E-01
 cg2d: Sum(rhs),rhsMax =  -1.97890855006478E-04  1.28538655112031E-01
 cg2d: Sum(rhs),rhsMax =  -1.98321205554148E-04  1.28566008011770E-01
 cg2d: Sum(rhs),rhsMax =  -1.98752687787070E-04  1.28593324340623E-01
 cg2d: Sum(rhs),rhsMax =  -1.99185295606782E-04  1.28620604109951E-01
 cg2d: Sum(rhs),rhsMax =  -1.99619023173649E-04  1.28647847331172E-01
 cg2d: Sum(rhs),rhsMax =  -2.00053864339988E-04  1.28675054015748E-01
 cg2d: Sum(rhs),rhsMax =  -2.00489813286102E-04  1.28702224175200E-01
 cg2d: Sum(rhs),rhsMax =  -2.00926863879871E-04  1.28729357821091E-01
 cg2d: Sum(rhs),rhsMax =  -2.01365010103597E-04  1.28756454965039E-01
 cg2d: Sum(rhs),rhsMax =  -2.01804246072586E-04  1.28783515618711E-01
 cg2d: Sum(rhs),rhsMax =  -2.02244565687668E-04  1.28810539793826E-01
 cg2d: Sum(rhs),rhsMax =  -2.02685963013153E-04  1.28837527502151E-01
 cg2d: Sum(rhs),rhsMax =  -2.03128431847534E-04  1.28864478755503E-01
 cg2d: Sum(rhs),rhsMax =  -2.03571966238332E-04  1.28891393565752E-01
 cg2d: Sum(rhs),rhsMax =  -2.04016560208396E-04  1.28918271944816E-01
 cg2d: Sum(rhs),rhsMax =  -2.04462207717562E-04  1.28945113904661E-01
 cg2d: Sum(rhs),rhsMax =  -2.04908902731271E-04  1.28971919457308E-01
 cg2d: Sum(rhs),rhsMax =  -2.05356639120051E-04  1.28998688614825E-01
 cg2d: Sum(rhs),rhsMax =  -2.05805411011799E-04  1.29025421389328E-01
 cg2d: Sum(rhs),rhsMax =  -2.06255212145976E-04  1.29052117792987E-01
 cg2d: Sum(rhs),rhsMax =  -2.06706036679835E-04  1.29078777838020E-01
 cg2d: Sum(rhs),rhsMax =  -2.07157878444035E-04  1.29105401536693E-01
(PID.TID 0000.0001)      cg2d_init_res =   2.37430861098061E-03
(PID.TID 0000.0001)      cg2d_iters(min,last) =      -1      81
(PID.TID 0000.0001)      cg2d_last_res =   9.83739806021707E-08
(PID.TID 0000.0001) // =======================================================
(PID.TID 0000.0001) // Begin MONITOR dynamic field statistics
(PID.TID 0000.0001) // =======================================================
(PID.TID 0000.0001) %MON time_tsnumber                =                  2448
(PID.TID 0000.0001) %MON time_secondsf                =   2.9376000000000E+06
(PID.TID 0000.0001) %MON dynstat_eta_max              =   6.3762175427922E-02
(PID.TID 0000.0001) %MON dynstat_eta_min              =  -2.1309936586263E-02
(PID.TID 0000.0001) %MON dynstat_eta_mean             =   1.3404593333252E-07
(PID.TID 0000.0001) %MON dynstat_eta_sd               =   2.0816467475827E-02
(PID.TID 0000.0001) %MON dynstat_eta_del2             =   1.2529040852840E-05
(PID.TID 0000.0001) %MON dynstat_uvel_max             =   2.3130526394213E-02
(PID.TID 0000.0001) %MON dynstat_uvel_min             =  -1.9037201364894E-02
(PID.TID 0000.0001) %MON dynstat_uvel_mean            =   1.2997512488656E-07
(PID.TID 0000.0001) %MON dynstat_uvel_sd              =   7.1000896613554E-03
(PID.TID 0000.0001) %MON dynstat_uvel_del2            =   7.6844351286037E-06
(PID.TID 0000.0001) %MON dynstat_vvel_max             =   7.8963258513260E-02
(PID.TID 0000.0001) %MON dynstat_vvel_min             =  -1.8786347693008E-02
(PID.TID 0000.0001) %MON dynstat_vvel_mean            =   3.0828463597182E-08
(PID.TID 0000.0001) %MON dynstat_vvel_sd              =   1.4963513194173E-02
(PID.TID 0000.0001) %MON dynstat_vvel_del2            =   5.3826223751796E-05
(PID.TID 0000.0001) %MON dynstat_wvel_max             =   1.6527587939054E-08
(PID.TID 0000.0001) %MON dynstat_wvel_min             =  -2.2140576717793E-08
(PID.TID 0000.0001) %MON dynstat_wvel_mean            =   3.2446622652868E-21
(PID.TID 0000.0001) %MON dynstat_wvel_sd              =   8.2344465108492E-09
(PID.TID 0000.0001) %MON dynstat_wvel_del2            =   5.4114171544958E-12
(PID.TID 0000.0001) %MON dynstat_theta_max            =   2.0000000000000E+01
(PID.TID 0000.0001) %MON dynstat_theta_min            =   2.0000000000000E+01
(PID.TID 0000.0001) %MON dynstat_theta_mean           =   2.0000000000000E+01
(PID.TID 0000.0001) %MON dynstat_theta_sd             =   0.0000000000000E+00
(PID.TID 0000.0001) %MON dynstat_theta_del2           =   0.0000000000000E+00
(PID.TID 0000.0001) %MON dynstat_salt_max             =   3.0000000000000E+01
(PID.TID 0000.0001) %MON dynstat_salt_min             =   3.0000000000000E+01
(PID.TID 0000.0001) %MON dynstat_salt_mean            =   3.0000000000000E+01
(PID.TID 0000.0001) %MON dynstat_salt_sd              =   0.0000000000000E+00
(PID.TID 0000.0001) %MON dynstat_salt_del2            =   0.0000000000000E+00
(PID.TID 0000.0001) %MON trAdv_CFL_u_max              =   1.3876436524826E-03
(PID.TID 0000.0001) %MON trAdv_CFL_v_max              =   4.7366712910318E-03
(PID.TID 0000.0001) %MON trAdv_CFL_w_max              =   3.9709971816279E-09
(PID.TID 0000.0001) %MON advcfl_uvel_max              =   1.3878315836528E-03
(PID.TID 0000.0001) %MON advcfl_vvel_max              =   4.7377955107956E-03
(PID.TID 0000.0001) %MON advcfl_wvel_max              =   1.0627476824541E-08
(PID.TID 0000.0001) %MON advcfl_W_hf_max              =   0.0000000000000E+00
(PID.TID 0000.0001) %MON pe_b_mean                    =   4.2509213714451E-07
(PID.TID 0000.0001) %MON ke_max                       =   3.1151930977525E-03
(PID.TID 0000.0001) %MON ke_mean                      =   1.3487301682858E-04
(PID.TID 0000.0001) %MON ke_vol                       =   7.2000000000000E+15
(PID.TID 0000.0001) %MON vort_r_min                   =  -8.5630332132605E-07
(PID.TID 0000.0001) %MON vort_r_max                   =   2.1887947173719E-06
(PID.TID 0000.0001) %MON vort_a_mean                  =   1.0600000000000E-04
(PID.TID 0000.0001) %MON vort_a_sd                    =   3.5302267796575E-06
(PID.TID 0000.0001) %MON vort_p_mean                  =   1.1130000000000E-04
(PID.TID 0000.0001) %MON vort_p_sd                    =   4.1132502612487E-05
(PID.TID 0000.0001) %MON surfExpan_theta_mean         =   6.4883451697837E-20
(PID.TID 0000.0001) %MON surfExpan_salt_mean          =   9.7325254028786E-20
(PID.TID 0000.0001) // =======================================================
(PID.TID 0000.0001) // End MONITOR dynamic field statistics
(PID.TID 0000.0001) // =======================================================
 cg2d: Sum(rhs),rhsMax =  -2.07610731391503E-04  1.29131988901325E-01
 cg2d: Sum(rhs),rhsMax =  -2.08064589568098E-04  1.29158539944282E-01
 cg2d: Sum(rhs),rhsMax =  -2.08519446878961E-04  1.29185054677980E-01
 cg2d: Sum(rhs),rhsMax =  -2.08975297288215E-04  1.29211533114886E-01
 cg2d: Sum(rhs),rhsMax =  -2.09432134733088E-04  1.29237975267515E-01
 cg2d: Sum(rhs),rhsMax =  -2.09889953219541E-04  1.29264381148431E-01
 cg2d: Sum(rhs),rhsMax =  -2.10348746676671E-04  1.29290750770251E-01
 cg2d: Sum(rhs),rhsMax =  -2.10808509085003E-04  1.29317084145636E-01
 cg2d: Sum(rhs),rhsMax =  -2.11269234401853E-04  1.29343381287300E-01
 cg2d: Sum(rhs),rhsMax =  -2.11730916582927E-04  1.29369642208006E-01
 cg2d: Sum(rhs),rhsMax =  -2.12193549526181E-04  1.29395866920564E-01
 cg2d: Sum(rhs),rhsMax =  -2.12657127324521E-04  1.29422055437836E-01
 cg2d: Sum(rhs),rhsMax =  -2.13121643932220E-04  1.29448207772732E-01
 cg2d: Sum(rhs),rhsMax =  -2.13587093315594E-04  1.29474323938208E-01
 cg2d: Sum(rhs),rhsMax =  -2.14053469466831E-04  1.29500403947274E-01
 cg2d: Sum(rhs),rhsMax =  -2.14520766314995E-04  1.29526447812986E-01
 cg2d: Sum(rhs),rhsMax =  -2.14988977902784E-04  1.29552455548449E-01
 cg2d: Sum(rhs),rhsMax =  -2.15458098257749E-04  1.29578427166819E-01
 cg2d: Sum(rhs),rhsMax =  -2.15928121332890E-04  1.29604362681297E-01
 cg2d: Sum(rhs),rhsMax =  -2.16399041164694E-04  1.29630262105135E-01
 cg2d: Sum(rhs),rhsMax =  -2.16870851772528E-04  1.29656125451637E-01
 cg2d: Sum(rhs),rhsMax =  -2.17343547124128E-04  1.29681952734147E-01
 cg2d: Sum(rhs),rhsMax =  -2.17817121240684E-04  1.29707743966066E-01
 cg2d: Sum(rhs),rhsMax =  -2.18291568182800E-04  1.29733499160840E-01
 cg2d: Sum(rhs),rhsMax =  -2.18766881886858E-04  1.29759218331963E-01
 cg2d: Sum(rhs),rhsMax =  -2.19243056581713E-04  1.29784901492978E-01
 cg2d: Sum(rhs),rhsMax =  -2.19720086240840E-04  1.29810548657477E-01
 cg2d: Sum(rhs),rhsMax =  -2.20197964760473E-04  1.29836159839098E-01
 cg2d: Sum(rhs),rhsMax =  -2.20676686425074E-04  1.29861735051532E-01
 cg2d: Sum(rhs),rhsMax =  -2.21156245178382E-04  1.29887274308514E-01
 cg2d: Sum(rhs),rhsMax =  -2.21636635026290E-04  1.29912777623828E-01
 cg2d: Sum(rhs),rhsMax =  -2.22117850155927E-04  1.29938245011307E-01
 cg2d: Sum(rhs),rhsMax =  -2.22599884629314E-04  1.29963676484831E-01
 cg2d: Sum(rhs),rhsMax =  -2.23082732310507E-04  1.29989072058329E-01
 cg2d: Sum(rhs),rhsMax =  -2.23566387664219E-04  1.30014431745777E-01
 cg2d: Sum(rhs),rhsMax =  -2.24050844607412E-04  1.30039755561201E-01
 cg2d: Sum(rhs),rhsMax =  -2.24536097263001E-04  1.30065043518671E-01
 cg2d: Sum(rhs),rhsMax =  -2.25022139740538E-04  1.30090295632308E-01
 cg2d: Sum(rhs),rhsMax =  -2.25508966204695E-04  1.30115511916280E-01
 cg2d: Sum(rhs),rhsMax =  -2.25996570768779E-04  1.30140692384802E-01
 cg2d: Sum(rhs),rhsMax =  -2.26484947578328E-04  1.30165837052138E-01
 cg2d: Sum(rhs),rhsMax =  -2.26974090771609E-04  1.30190945932597E-01
 cg2d: Sum(rhs),rhsMax =  -2.27463994547620E-04  1.30216019040538E-01
 cg2d: Sum(rhs),rhsMax =  -2.27954653070842E-04  1.30241056390367E-01
 cg2d: Sum(rhs),rhsMax =  -2.28446060459782E-04  1.30266057996536E-01
 cg2d: Sum(rhs),rhsMax =  -2.28938210876581E-04  1.30291023873547E-01
 cg2d: Sum(rhs),rhsMax =  -2.29431098633874E-04  1.30315954035945E-01
 cg2d: Sum(rhs),rhsMax =  -2.29924717809741E-04  1.30340848498327E-01
 cg2d: Sum(rhs),rhsMax =  -2.30419062684074E-04  1.30365707275334E-01
 cg2d: Sum(rhs),rhsMax =  -2.30914127540915E-04  1.30390530381657E-01
 cg2d: Sum(rhs),rhsMax =  -2.31409906362039E-04  1.30415317832030E-01
 cg2d: Sum(rhs),rhsMax =  -2.31906393676961E-04  1.30440069641237E-01
 cg2d: Sum(rhs),rhsMax =  -2.32403583495883E-04  1.30464785824109E-01
 cg2d: Sum(rhs),rhsMax =  -2.32901470214627E-04  1.30489466395522E-01
 cg2d: Sum(rhs),rhsMax =  -2.33400048042814E-04  1.30514111370402E-01
 cg2d: Sum(rhs),rhsMax =  -2.33899311242556E-04  1.30538720763718E-01
 cg2d: Sum(rhs),rhsMax =  -2.34399254049399E-04  1.30563294590488E-01
 cg2d: Sum(rhs),rhsMax =  -2.34899870893261E-04  1.30587832865777E-01
 cg2d: Sum(rhs),rhsMax =  -2.35401155871867E-04  1.30612335604696E-01
 cg2d: Sum(rhs),rhsMax =  -2.35903103413588E-04  1.30636802822403E-01
 cg2d: Sum(rhs),rhsMax =  -2.36405707895800E-04  1.30661234534099E-01
 cg2d: Sum(rhs),rhsMax =  -2.36908963607972E-04  1.30685630755038E-01
 cg2d: Sum(rhs),rhsMax =  -2.37412864705544E-04  1.30709991500516E-01
 cg2d: Sum(rhs),rhsMax =  -2.37917405816503E-04  1.30734316785877E-01
 cg2d: Sum(rhs),rhsMax =  -2.38422581091274E-04  1.30758606626509E-01
 cg2d: Sum(rhs),rhsMax =  -2.38928385062650E-04  1.30782861037849E-01
 cg2d: Sum(rhs),rhsMax =  -2.39434811867272E-04  1.30807080035379E-01
 cg2d: Sum(rhs),rhsMax =  -2.39941856051832E-04  1.30831263634628E-01
 cg2d: Sum(rhs),rhsMax =  -2.40449511976335E-04  1.30855411851169E-01
 cg2d: Sum(rhs),rhsMax =  -2.40957774070740E-04  1.30879524700623E-01
 cg2d: Sum(rhs),rhsMax =  -2.41466636649383E-04  1.30903602198656E-01
 cg2d: Sum(rhs),rhsMax =  -2.41976094321664E-04  1.30927644360981E-01
(PID.TID 0000.0001)      cg2d_init_res =   2.27061222321935E-03
(PID.TID 0000.0001)      cg2d_iters(min,last) =      -1      81
(PID.TID 0000.0001)      cg2d_last_res =   9.92950112225767E-08
(PID.TID 0000.0001) // =======================================================
(PID.TID 0000.0001) // Begin MONITOR dynamic field statistics
(PID.TID 0000.0001) // =======================================================
(PID.TID 0000.0001) %MON time_tsnumber                =                  2520
(PID.TID 0000.0001) %MON time_secondsf                =   3.0240000000000E+06
(PID.TID 0000.0001) %MON dynstat_eta_max              =   6.4237016192721E-02
(PID.TID 0000.0001) %MON dynstat_eta_min              =  -2.0925597507571E-02
(PID.TID 0000.0001) %MON dynstat_eta_mean             =   1.5876980302544E-07
(PID.TID 0000.0001) %MON dynstat_eta_sd               =   2.0555656085514E-02
(PID.TID 0000.0001) %MON dynstat_eta_del2             =   1.2899286187317E-05
(PID.TID 0000.0001) %MON dynstat_uvel_max             =   2.3337115925322E-02
(PID.TID 0000.0001) %MON dynstat_uvel_min             =  -1.8913902754460E-02
(PID.TID 0000.0001) %MON dynstat_uvel_mean            =   1.6451362723510E-07
(PID.TID 0000.0001) %MON dynstat_uvel_sd              =   6.9990549531206E-03
(PID.TID 0000.0001) %MON dynstat_uvel_del2            =   7.5457285398872E-06
(PID.TID 0000.0001) %MON dynstat_vvel_max             =   8.0246500759913E-02
(PID.TID 0000.0001) %MON dynstat_vvel_min             =  -1.9576967844160E-02
(PID.TID 0000.0001) %MON dynstat_vvel_mean            =   2.9867471329718E-08
(PID.TID 0000.0001) %MON dynstat_vvel_sd              =   1.5129310051953E-02
(PID.TID 0000.0001) %MON dynstat_vvel_del2            =   5.5155328412241E-05
(PID.TID 0000.0001) %MON dynstat_wvel_max             =   1.5195362481754E-08
(PID.TID 0000.0001) %MON dynstat_wvel_min             =  -2.2700161757530E-08
(PID.TID 0000.0001) %MON dynstat_wvel_mean            =   8.9676708133387E-22
(PID.TID 0000.0001) %MON dynstat_wvel_sd              =   8.2358040473903E-09
(PID.TID 0000.0001) %MON dynstat_wvel_del2            =   5.3305313046359E-12
(PID.TID 0000.0001) %MON dynstat_theta_max            =   2.0000000000000E+01
(PID.TID 0000.0001) %MON dynstat_theta_min            =   2.0000000000000E+01
(PID.TID 0000.0001) %MON dynstat_theta_mean           =   2.0000000000000E+01
(PID.TID 0000.0001) %MON dynstat_theta_sd             =   0.0000000000000E+00
(PID.TID 0000.0001) %MON dynstat_theta_del2           =   0.0000000000000E+00
(PID.TID 0000.0001) %MON dynstat_salt_max             =   3.0000000000000E+01
(PID.TID 0000.0001) %MON dynstat_salt_min             =   3.0000000000000E+01
(PID.TID 0000.0001) %MON dynstat_salt_mean            =   3.0000000000000E+01
(PID.TID 0000.0001) %MON dynstat_salt_sd              =   0.0000000000000E+00
(PID.TID 0000.0001) %MON dynstat_salt_del2            =   0.0000000000000E+00
(PID.TID 0000.0001) %MON trAdv_CFL_u_max              =   1.4000698909369E-03
(PID.TID 0000.0001) %MON trAdv_CFL_v_max              =   4.8137738221778E-03
(PID.TID 0000.0001) %MON trAdv_CFL_w_max              =   3.6512276619673E-09
(PID.TID 0000.0001) %MON advcfl_uvel_max              =   1.4002269555193E-03
(PID.TID 0000.0001) %MON advcfl_vvel_max              =   4.8147900455948E-03
(PID.TID 0000.0001) %MON advcfl_wvel_max              =   1.0896077643614E-08
(PID.TID 0000.0001) %MON advcfl_W_hf_max              =   0.0000000000000E+00
(PID.TID 0000.0001) %MON pe_b_mean                    =   4.1450683218564E-07
(PID.TID 0000.0001) %MON ke_max                       =   3.2187144341741E-03
(PID.TID 0000.0001) %MON ke_mean                      =   1.3662570651550E-04
(PID.TID 0000.0001) %MON ke_vol                       =   7.2000000000000E+15
(PID.TID 0000.0001) %MON vort_r_min                   =  -8.9026099470069E-07
(PID.TID 0000.0001) %MON vort_r_max                   =   2.2134540735798E-06
(PID.TID 0000.0001) %MON vort_a_mean                  =   1.0600000000000E-04
(PID.TID 0000.0001) %MON vort_a_sd                    =   3.5306986788861E-06
(PID.TID 0000.0001) %MON vort_p_mean                  =   1.1130000000000E-04
(PID.TID 0000.0001) %MON vort_p_sd                    =   4.1133983528614E-05
(PID.TID 0000.0001) %MON surfExpan_theta_mean         =   1.7909866182701E-20
(PID.TID 0000.0001) %MON surfExpan_salt_mean          =   2.6863573094400E-20
(PID.TID 0000.0001) // =======================================================
(PID.TID 0000.0001) // End MONITOR dynamic field statistics
(PID.TID 0000.0001) // =======================================================
 cg2d: Sum(rhs),rhsMax =  -2.42486141360683E-04  1.30951651203357E-01
 cg2d: Sum(rhs),rhsMax =  -2.42996772310211E-04  1.30975622741585E-01
 cg2d: Sum(rhs),rhsMax =  -2.43507981434374E-04  1.30999558991517E-01
 cg2d: Sum(rhs),rhsMax =  -2.44019763408208E-04  1.31023459969048E-01
 cg2d: Sum(rhs),rhsMax =  -2.44532112631551E-04  1.31047325690119E-01
 cg2d: Sum(rhs),rhsMax =  -2.45045023591712E-04  1.31071156170717E-01
 cg2d: Sum(rhs),rhsMax =  -2.45558490798924E-04  1.31094951426874E-01
 cg2d: Sum(rhs),rhsMax =  -2.46072508659682E-04  1.31118711474666E-01
 cg2d: Sum(rhs),rhsMax =  -2.46587071820094E-04  1.31142436330219E-01
 cg2d: Sum(rhs),rhsMax =  -2.47102174683818E-04  1.31166126009699E-01
 cg2d: Sum(rhs),rhsMax =  -2.47617811867737E-04  1.31189780529321E-01
 cg2d: Sum(rhs),rhsMax =  -2.48133977963893E-04  1.31213399905343E-01
 cg2d: Sum(rhs),rhsMax =  -2.48650667319755E-04  1.31236984154070E-01
 cg2d: Sum(rhs),rhsMax =  -2.49167874738574E-04  1.31260533291850E-01
 cg2d: Sum(rhs),rhsMax =  -2.49685594721875E-04  1.31284047335079E-01
 cg2d: Sum(rhs),rhsMax =  -2.50203821807691E-04  1.31307526300194E-01
 cg2d: Sum(rhs),rhsMax =  -2.50722550583224E-04  1.31330970203682E-01
 cg2d: Sum(rhs),rhsMax =  -2.51241775706432E-04  1.31354379062071E-01
 cg2d: Sum(rhs),rhsMax =  -2.51761491695150E-04  1.31377752891933E-01
 cg2d: Sum(rhs),rhsMax =  -2.52281693186079E-04  1.31401091709890E-01
 cg2d: Sum(rhs),rhsMax =  -2.52802374958424E-04  1.31424395532604E-01
 cg2d: Sum(rhs),rhsMax =  -2.53323531611544E-04  1.31447664376784E-01
 cg2d: Sum(rhs),rhsMax =  -2.53845157669463E-04  1.31470898259181E-01
 cg2d: Sum(rhs),rhsMax =  -2.54367247897948E-04  1.31494097196593E-01
 cg2d: Sum(rhs),rhsMax =  -2.54889797072787E-04  1.31517261205864E-01
 cg2d: Sum(rhs),rhsMax =  -2.55412799754220E-04  1.31540390303876E-01
 cg2d: Sum(rhs),rhsMax =  -2.55936250643351E-04  1.31563484507564E-01
 cg2d: Sum(rhs),rhsMax =  -2.56460144388538E-04  1.31586543833901E-01
 cg2d: Sum(rhs),rhsMax =  -2.56984475724514E-04  1.31609568299905E-01
 cg2d: Sum(rhs),rhsMax =  -2.57509239478185E-04  1.31632557922641E-01
 cg2d: Sum(rhs),rhsMax =  -2.58034430424587E-04  1.31655512719217E-01
 cg2d: Sum(rhs),rhsMax =  -2.58560043195940E-04  1.31678432706783E-01
 cg2d: Sum(rhs),rhsMax =  -2.59086072584692E-04  1.31701317902536E-01
 cg2d: Sum(rhs),rhsMax =  -2.59612513385135E-04  1.31724168323715E-01
 cg2d: Sum(rhs),rhsMax =  -2.60139360344037E-04  1.31746983987603E-01
 cg2d: Sum(rhs),rhsMax =  -2.60666608231429E-04  1.31769764911528E-01
 cg2d: Sum(rhs),rhsMax =  -2.61194251914422E-04  1.31792511112861E-01
 cg2d: Sum(rhs),rhsMax =  -2.61722286104751E-04  1.31815222609017E-01
 cg2d: Sum(rhs),rhsMax =  -2.62250705728472E-04  1.31837899417455E-01
 cg2d: Sum(rhs),rhsMax =  -2.62779505547538E-04  1.31860541555676E-01
 cg2d: Sum(rhs),rhsMax =  -2.63308680417975E-04  1.31883149041227E-01
 cg2d: Sum(rhs),rhsMax =  -2.63838225074335E-04  1.31905721891697E-01
 cg2d: Sum(rhs),rhsMax =  -2.64368134523969E-04  1.31928260124716E-01
 cg2d: Sum(rhs),rhsMax =  -2.64898403580371E-04  1.31950763757964E-01
 cg2d: Sum(rhs),rhsMax =  -2.65429027132740E-04  1.31973232809158E-01
 cg2d: Sum(rhs),rhsMax =  -2.65960000095542E-04  1.31995667296061E-01
 cg2d: Sum(rhs),rhsMax =  -2.66491317299168E-04  1.32018067236478E-01
 cg2d: Sum(rhs),rhsMax =  -2.67022973683189E-04  1.32040432648261E-01
 cg2d: Sum(rhs),rhsMax =  -2.67554964187142E-04  1.32062763549298E-01
 cg2d: Sum(rhs),rhsMax =  -2.68087283703948E-04  1.32085059957526E-01
 cg2d: Sum(rhs),rhsMax =  -2.68619927131259E-04  1.32107321890922E-01
 cg2d: Sum(rhs),rhsMax =  -2.69152889527970E-04  1.32129549367508E-01
 cg2d: Sum(rhs),rhsMax =  -2.69686165723162E-04  1.32151742405348E-01
 cg2d: Sum(rhs),rhsMax =  -2.70219750730833E-04  1.32173901022546E-01
 cg2d: Sum(rhs),rhsMax =  -2.70753639457522E-04  1.32196025237253E-01
 cg2d: Sum(rhs),rhsMax =  -2.71287827024070E-04  1.32218115067661E-01
 cg2d: Sum(rhs),rhsMax =  -2.71822308317933E-04  1.32240170532004E-01
 cg2d: Sum(rhs),rhsMax =  -2.72357078394327E-04  1.32262191648558E-01
 cg2d: Sum(rhs),rhsMax =  -2.72892132224023E-04  1.32284178435644E-01
 cg2d: Sum(rhs),rhsMax =  -2.73427464874527E-04  1.32306130911622E-01
 cg2d: Sum(rhs),rhsMax =  -2.73963071252745E-04  1.32328049094899E-01
 cg2d: Sum(rhs),rhsMax =  -2.74498946456440E-04  1.32349933003918E-01
 cg2d: Sum(rhs),rhsMax =  -2.75035085664731E-04  1.32371782657168E-01
 cg2d: Sum(rhs),rhsMax =  -2.75571483739702E-04  1.32393598073184E-01
 cg2d: Sum(rhs),rhsMax =  -2.76108135816001E-04  1.32415379270534E-01
 cg2d: Sum(rhs),rhsMax =  -2.76645036913241E-04  1.32437126267836E-01
 cg2d: Sum(rhs),rhsMax =  -2.77182182222789E-04  1.32458839083745E-01
 cg2d: Sum(rhs),rhsMax =  -2.77719566717014E-04  1.32480517736962E-01
 cg2d: Sum(rhs),rhsMax =  -2.78257185539463E-04  1.32502162246226E-01
 cg2d: Sum(rhs),rhsMax =  -2.78795033939609E-04  1.32523772630320E-01
 cg2d: Sum(rhs),rhsMax =  -2.79333106716613E-04  1.32545348908069E-01
 cg2d: Sum(rhs),rhsMax =  -2.79871399120338E-04  1.32566891098338E-01
(PID.TID 0000.0001)      cg2d_init_res =   2.17654467395251E-03
(PID.TID 0000.0001)      cg2d_iters(min,last) =      -1      81
(PID.TID 0000.0001)      cg2d_last_res =   9.95510469867594E-08
(PID.TID 0000.0001) // =======================================================
(PID.TID 0000.0001) // Begin MONITOR dynamic field statistics
(PID.TID 0000.0001) // =======================================================
(PID.TID 0000.0001) %MON time_tsnumber                =                  2592
(PID.TID 0000.0001) %MON time_secondsf                =   3.1104000000000E+06
(PID.TID 0000.0001) %MON dynstat_eta_max              =   6.4520654325943E-02
(PID.TID 0000.0001) %MON dynstat_eta_min              =  -2.0562130502695E-02
(PID.TID 0000.0001) %MON dynstat_eta_mean             =   1.8589550307778E-07
(PID.TID 0000.0001) %MON dynstat_eta_sd               =   2.0266102702861E-02
(PID.TID 0000.0001) %MON dynstat_eta_del2             =   1.3256672130992E-05
(PID.TID 0000.0001) %MON dynstat_uvel_max             =   2.3571436629089E-02
(PID.TID 0000.0001) %MON dynstat_uvel_min             =  -1.8755962385508E-02
(PID.TID 0000.0001) %MON dynstat_uvel_mean            =   1.9538115393974E-07
(PID.TID 0000.0001) %MON dynstat_uvel_sd              =   6.8964094736512E-03
(PID.TID 0000.0001) %MON dynstat_uvel_del2            =   7.4153082377537E-06
(PID.TID 0000.0001) %MON dynstat_vvel_max             =   8.1410323011798E-02
(PID.TID 0000.0001) %MON dynstat_vvel_min             =  -2.0464870896750E-02
(PID.TID 0000.0001) %MON dynstat_vvel_mean            =   2.8618515289808E-08
(PID.TID 0000.0001) %MON dynstat_vvel_sd              =   1.5276117821414E-02
(PID.TID 0000.0001) %MON dynstat_vvel_del2            =   5.6414612494403E-05
(PID.TID 0000.0001) %MON dynstat_wvel_max             =   1.3874236363918E-08
(PID.TID 0000.0001) %MON dynstat_wvel_min             =  -2.3156960451743E-08
(PID.TID 0000.0001) %MON dynstat_wvel_mean            =  -3.7183589382847E-21
(PID.TID 0000.0001) %MON dynstat_wvel_sd              =   8.2393006283571E-09
(PID.TID 0000.0001) %MON dynstat_wvel_del2            =   5.2464934098389E-12
(PID.TID 0000.0001) %MON dynstat_theta_max            =   2.0000000000000E+01
(PID.TID 0000.0001) %MON dynstat_theta_min            =   2.0000000000000E+01
(PID.TID 0000.0001) %MON dynstat_theta_mean           =   2.0000000000000E+01
(PID.TID 0000.0001) %MON dynstat_theta_sd             =   0.0000000000000E+00
(PID.TID 0000.0001) %MON dynstat_theta_del2           =   0.0000000000000E+00
(PID.TID 0000.0001) %MON dynstat_salt_max             =   3.0000000000000E+01
(PID.TID 0000.0001) %MON dynstat_salt_min             =   3.0000000000000E+01
(PID.TID 0000.0001) %MON dynstat_salt_mean            =   3.0000000000000E+01
(PID.TID 0000.0001) %MON dynstat_salt_sd              =   0.0000000000000E+00
(PID.TID 0000.0001) %MON dynstat_salt_del2            =   0.0000000000000E+00
(PID.TID 0000.0001) %MON trAdv_CFL_u_max              =   1.4140810110452E-03
(PID.TID 0000.0001) %MON trAdv_CFL_v_max              =   4.8836766274029E-03
(PID.TID 0000.0001) %MON trAdv_CFL_w_max              =   3.3342739680782E-09
(PID.TID 0000.0001) %MON advcfl_uvel_max              =   1.4142861977453E-03
(PID.TID 0000.0001) %MON advcfl_vvel_max              =   4.8846193807079E-03
(PID.TID 0000.0001) %MON advcfl_wvel_max              =   1.1115341016836E-08
(PID.TID 0000.0001) %MON advcfl_W_hf_max              =   0.0000000000000E+00
(PID.TID 0000.0001) %MON pe_b_mean                    =   4.0291133534033E-07
(PID.TID 0000.0001) %MON ke_max                       =   3.3135477173635E-03
(PID.TID 0000.0001) %MON ke_mean                      =   1.3811911768582E-04
(PID.TID 0000.0001) %MON ke_vol                       =   7.2000000000000E+15
(PID.TID 0000.0001) %MON vort_r_min                   =  -9.2353722826855E-07
(PID.TID 0000.0001) %MON vort_r_max                   =   2.2353441098151E-06
(PID.TID 0000.0001) %MON vort_a_mean                  =   1.0600000000000E-04
(PID.TID 0000.0001) %MON vort_a_sd                    =   3.5311496768433E-06
(PID.TID 0000.0001) %MON vort_p_mean                  =   1.1130000000000E-04
(PID.TID 0000.0001) %MON vort_p_sd                    =   4.1135372570018E-05
(PID.TID 0000.0001) %MON surfExpan_theta_mean         =  -7.4399508775969E-20
(PID.TID 0000.0001) %MON surfExpan_salt_mean          =  -1.1159910526557E-19
(PID.TID 0000.0001) // =======================================================
(PID.TID 0000.0001) // End MONITOR dynamic field statistics
(PID.TID 0000.0001) // =======================================================
 cg2d: Sum(rhs),rhsMax =  -2.80409906410367E-04  1.32588399220034E-01
 cg2d: Sum(rhs),rhsMax =  -2.80948623621697E-04  1.32609873292109E-01
 cg2d: Sum(rhs),rhsMax =  -2.81487545846330E-04  1.32631313333551E-01
 cg2d: Sum(rhs),rhsMax =  -2.82026668390997E-04  1.32652719363393E-01
 cg2d: Sum(rhs),rhsMax =  -2.82565986222865E-04  1.32674091400707E-01
 cg2d: Sum(rhs),rhsMax =  -2.83105494722995E-04  1.32695429464610E-01
 cg2d: Sum(rhs),rhsMax =  -2.83645188986846E-04  1.32716733574256E-01
 cg2d: Sum(rhs),rhsMax =  -2.84185064101846E-04  1.32738003748844E-01
 cg2d: Sum(rhs),rhsMax =  -2.84725115281782E-04  1.32759240007610E-01
 cg2d: Sum(rhs),rhsMax =  -2.85265337829477E-04  1.32780442369836E-01
 cg2d: Sum(rhs),rhsMax =  -2.85805726822404E-04  1.32801610854839E-01
 cg2d: Sum(rhs),rhsMax =  -2.86346277571886E-04  1.32822745481983E-01
 cg2d: Sum(rhs),rhsMax =  -2.86886985244371E-04  1.32843846270670E-01
 cg2d: Sum(rhs),rhsMax =  -2.87427845088522E-04  1.32864913240342E-01
 cg2d: Sum(rhs),rhsMax =  -2.87968852392987E-04  1.32885946410483E-01
 cg2d: Sum(rhs),rhsMax =  -2.88510002302434E-04  1.32906945800616E-01
 cg2d: Sum(rhs),rhsMax =  -2.89051290200202E-04  1.32927911430307E-01
 cg2d: Sum(rhs),rhsMax =  -2.89592710993481E-04  1.32948843319163E-01
 cg2d: Sum(rhs),rhsMax =  -2.90134260387676E-04  1.32969741486828E-01
 cg2d: Sum(rhs),rhsMax =  -2.90675933479251E-04  1.32990605952989E-01
 cg2d: Sum(rhs),rhsMax =  -2.91217725447171E-04  1.33011436737372E-01
 cg2d: Sum(rhs),rhsMax =  -2.91759631587924E-04  1.33032233859747E-01
 cg2d: Sum(rhs),rhsMax =  -2.92301026810647E-04  1.33053279797107E-01
 cg2d: Sum(rhs),rhsMax =  -2.92841867671848E-04  1.33074590726292E-01
 cg2d: Sum(rhs),rhsMax =  -2.93382802766492E-04  1.33095868714379E-01
 cg2d: Sum(rhs),rhsMax =  -2.93923827499707E-04  1.33117113781063E-01
 cg2d: Sum(rhs),rhsMax =  -2.94464937265100E-04  1.33138325946077E-01
 cg2d: Sum(rhs),rhsMax =  -2.95006127316081E-04  1.33159505229193E-01
 cg2d: Sum(rhs),rhsMax =  -2.95547392885383E-04  1.33180651650221E-01
 cg2d: Sum(rhs),rhsMax =  -2.96088729356016E-04  1.33201765229013E-01
 cg2d: Sum(rhs),rhsMax =  -2.96630132148561E-04  1.33222845985454E-01
 cg2d: Sum(rhs),rhsMax =  -2.97171596430228E-04  1.33243893939473E-01
 cg2d: Sum(rhs),rhsMax =  -2.97713117499292E-04  1.33264909111037E-01
 cg2d: Sum(rhs),rhsMax =  -2.98254690962211E-04  1.33285891520148E-01
 cg2d: Sum(rhs),rhsMax =  -2.98796311934003E-04  1.33306841186849E-01
 cg2d: Sum(rhs),rhsMax =  -2.99337975970985E-04  1.33327758131222E-01
 cg2d: Sum(rhs),rhsMax =  -2.99879678311345E-04  1.33348642373386E-01
 cg2d: Sum(rhs),rhsMax =  -3.00421414355396E-04  1.33369493933498E-01
 cg2d: Sum(rhs),rhsMax =  -3.00963179444700E-04  1.33390312831755E-01
 cg2d: Sum(rhs),rhsMax =  -3.01504968969926E-04  1.33411099088391E-01
 cg2d: Sum(rhs),rhsMax =  -3.02046778341085E-04  1.33431852723677E-01
 cg2d: Sum(rhs),rhsMax =  -3.02588603028132E-04  1.33452573757925E-01
 cg2d: Sum(rhs),rhsMax =  -3.03130438200657E-04  1.33473262211482E-01
 cg2d: Sum(rhs),rhsMax =  -3.03672279302667E-04  1.33493918104733E-01
 cg2d: Sum(rhs),rhsMax =  -3.04214122029082E-04  1.33514541458103E-01
 cg2d: Sum(rhs),rhsMax =  -3.04755961530215E-04  1.33535132292055E-01
 cg2d: Sum(rhs),rhsMax =  -3.05297793251340E-04  1.33555690627086E-01
 cg2d: Sum(rhs),rhsMax =  -3.05839612661474E-04  1.33576216483734E-01
 cg2d: Sum(rhs),rhsMax =  -3.06381415103487E-04  1.33596709882574E-01
 cg2d: Sum(rhs),rhsMax =  -3.06923196018010E-04  1.33617170844218E-01
 cg2d: Sum(rhs),rhsMax =  -3.07464950909167E-04  1.33637599389315E-01
 cg2d: Sum(rhs),rhsMax =  -3.08006675118348E-04  1.33657995538551E-01
 cg2d: Sum(rhs),rhsMax =  -3.08548364137844E-04  1.33678359312653E-01
 cg2d: Sum(rhs),rhsMax =  -3.09090013508402E-04  1.33698690732380E-01
 cg2d: Sum(rhs),rhsMax =  -3.09631618555284E-04  1.33718989818532E-01
 cg2d: Sum(rhs),rhsMax =  -3.10173174636789E-04  1.33739256591944E-01
 cg2d: Sum(rhs),rhsMax =  -3.10714677374545E-04  1.33759491073488E-01
 cg2d: Sum(rhs),rhsMax =  -3.11256122233376E-04  1.33779693284077E-01
 cg2d: Sum(rhs),rhsMax =  -3.11797504538144E-04  1.33799863244654E-01
 cg2d: Sum(rhs),rhsMax =  -3.12338819857907E-04  1.33820000976205E-01
 cg2d: Sum(rhs),rhsMax =  -3.12880063707673E-04  1.33840106499750E-01
 cg2d: Sum(rhs),rhsMax =  -3.13421231388854E-04  1.33860179836345E-01
 cg2d: Sum(rhs),rhsMax =  -3.13962318528717E-04  1.33880221007087E-01
 cg2d: Sum(rhs),rhsMax =  -3.14503320551136E-04  1.33900230033102E-01
 cg2d: Sum(rhs),rhsMax =  -3.15044232944279E-04  1.33920206935561E-01
 cg2d: Sum(rhs),rhsMax =  -3.15585051233600E-04  1.33940151735663E-01
 cg2d: Sum(rhs),rhsMax =  -3.16125770874237E-04  1.33960064454652E-01
 cg2d: Sum(rhs),rhsMax =  -3.16666387346683E-04  1.33979945113802E-01
 cg2d: Sum(rhs),rhsMax =  -3.17206896246053E-04  1.33999793734427E-01
 cg2d: Sum(rhs),rhsMax =  -3.17747292876053E-04  1.34019610337874E-01
 cg2d: Sum(rhs),rhsMax =  -3.18287572891664E-04  1.34039394945529E-01
 cg2d: Sum(rhs),rhsMax =  -3.18827731793587E-04  1.34059147578811E-01
(PID.TID 0000.0001)      cg2d_init_res =   2.09126832763530E-03
(PID.TID 0000.0001)      cg2d_iters(min,last) =      -1      81
(PID.TID 0000.0001)      cg2d_last_res =   9.72135992961700E-08
(PID.TID 0000.0001) // =======================================================
(PID.TID 0000.0001) // Begin MONITOR dynamic field statistics
(PID.TID 0000.0001) // =======================================================
(PID.TID 0000.0001) %MON time_tsnumber                =                  2664
(PID.TID 0000.0001) %MON time_secondsf                =   3.1968000000000E+06
(PID.TID 0000.0001) %MON dynstat_eta_max              =   6.4617638458103E-02
(PID.TID 0000.0001) %MON dynstat_eta_min              =  -2.0225426190675E-02
(PID.TID 0000.0001) %MON dynstat_eta_mean             =   2.1410234247535E-07
(PID.TID 0000.0001) %MON dynstat_eta_sd               =   1.9952476588865E-02
(PID.TID 0000.0001) %MON dynstat_eta_del2             =   1.3600654062652E-05
(PID.TID 0000.0001) %MON dynstat_uvel_max             =   2.3802199181157E-02
(PID.TID 0000.0001) %MON dynstat_uvel_min             =  -1.8623226866135E-02
(PID.TID 0000.0001) %MON dynstat_uvel_mean            =   2.2226636473307E-07
(PID.TID 0000.0001) %MON dynstat_uvel_sd              =   6.7938445877366E-03
(PID.TID 0000.0001) %MON dynstat_uvel_del2            =   7.2942866235143E-06
(PID.TID 0000.0001) %MON dynstat_vvel_max             =   8.2479272348113E-02
(PID.TID 0000.0001) %MON dynstat_vvel_min             =  -2.1293309508883E-02
(PID.TID 0000.0001) %MON dynstat_vvel_mean            =   2.7103478654603E-08
(PID.TID 0000.0001) %MON dynstat_vvel_sd              =   1.5404774307762E-02
(PID.TID 0000.0001) %MON dynstat_vvel_del2            =   5.7603842851422E-05
(PID.TID 0000.0001) %MON dynstat_wvel_max             =   1.2659730417654E-08
(PID.TID 0000.0001) %MON dynstat_wvel_min             =  -2.3493112590513E-08
(PID.TID 0000.0001) %MON dynstat_wvel_mean            =   9.8566412513416E-22
(PID.TID 0000.0001) %MON dynstat_wvel_sd              =   8.2420135232080E-09
(PID.TID 0000.0001) %MON dynstat_wvel_del2            =   5.1605575334530E-12
(PID.TID 0000.0001) %MON dynstat_theta_max            =   2.0000000000000E+01
(PID.TID 0000.0001) %MON dynstat_theta_min            =   2.0000000000000E+01
(PID.TID 0000.0001) %MON dynstat_theta_mean           =   2.0000000000000E+01
(PID.TID 0000.0001) %MON dynstat_theta_sd             =   0.0000000000000E+00
(PID.TID 0000.0001) %MON dynstat_theta_del2           =   0.0000000000000E+00
(PID.TID 0000.0001) %MON dynstat_salt_max             =   3.0000000000000E+01
(PID.TID 0000.0001) %MON dynstat_salt_min             =   3.0000000000000E+01
(PID.TID 0000.0001) %MON dynstat_salt_mean            =   3.0000000000000E+01
(PID.TID 0000.0001) %MON dynstat_salt_sd              =   0.0000000000000E+00
(PID.TID 0000.0001) %MON dynstat_salt_del2            =   0.0000000000000E+00
(PID.TID 0000.0001) %MON trAdv_CFL_u_max              =   1.4279519370282E-03
(PID.TID 0000.0001) %MON trAdv_CFL_v_max              =   4.9479156549521E-03
(PID.TID 0000.0001) %MON trAdv_CFL_w_max              =   3.0422739470378E-09
(PID.TID 0000.0001) %MON advcfl_uvel_max              =   1.4281319508694E-03
(PID.TID 0000.0001) %MON advcfl_vvel_max              =   4.9487563408868E-03
(PID.TID 0000.0001) %MON advcfl_wvel_max              =   1.1276694043446E-08
(PID.TID 0000.0001) %MON advcfl_W_hf_max              =   0.0000000000000E+00
(PID.TID 0000.0001) %MON pe_b_mean                    =   3.9053739695561E-07
(PID.TID 0000.0001) %MON ke_max                       =   3.3994400000449E-03
(PID.TID 0000.0001) %MON ke_mean                      =   1.3936950293772E-04
(PID.TID 0000.0001) %MON ke_vol                       =   7.2000000000000E+15
(PID.TID 0000.0001) %MON vort_r_min                   =  -9.5621344198133E-07
(PID.TID 0000.0001) %MON vort_r_max                   =   2.2547774079881E-06
(PID.TID 0000.0001) %MON vort_a_mean                  =   1.0600000000000E-04
(PID.TID 0000.0001) %MON vort_a_sd                    =   3.5315786849156E-06
(PID.TID 0000.0001) %MON vort_p_mean                  =   1.1130000000000E-04
(PID.TID 0000.0001) %MON vort_p_sd                    =   4.1136675227790E-05
(PID.TID 0000.0001) %MON surfExpan_theta_mean         =   1.9675954692704E-20
(PID.TID 0000.0001) %MON surfExpan_salt_mean          =   2.9513339920110E-20
(PID.TID 0000.0001) // =======================================================
(PID.TID 0000.0001) // End MONITOR dynamic field statistics
(PID.TID 0000.0001) // =======================================================
 cg2d: Sum(rhs),rhsMax =  -3.19367765007955E-04  1.34078868259179E-01
 cg2d: Sum(rhs),rhsMax =  -3.19907668166737E-04  1.34098557008125E-01
 cg2d: Sum(rhs),rhsMax =  -3.20447436744039E-04  1.34118213847179E-01
 cg2d: Sum(rhs),rhsMax =  -3.20987066100648E-04  1.34137838797903E-01
 cg2d: Sum(rhs),rhsMax =  -3.21526551977093E-04  1.34157431881899E-01
 cg2d: Sum(rhs),rhsMax =  -3.22065889824638E-04  1.34176993120803E-01
 cg2d: Sum(rhs),rhsMax =  -3.22605075092440E-04  1.34196522536285E-01
 cg2d: Sum(rhs),rhsMax =  -3.23144103394698E-04  1.34216020150054E-01
 cg2d: Sum(rhs),rhsMax =  -3.23682970252358E-04  1.34235485983852E-01
 cg2d: Sum(rhs),rhsMax =  -3.24221671152295E-04  1.34254920059456E-01
 cg2d: Sum(rhs),rhsMax =  -3.24760201706920E-04  1.34274322398681E-01
 cg2d: Sum(rhs),rhsMax =  -3.25298557432198E-04  1.34293693023374E-01
 cg2d: Sum(rhs),rhsMax =  -3.25836733864267E-04  1.34313031955420E-01
 cg2d: Sum(rhs),rhsMax =  -3.26374726571042E-04  1.34332339216738E-01
 cg2d: Sum(rhs),rhsMax =  -3.26912530981821E-04  1.34351614829281E-01
 cg2d: Sum(rhs),rhsMax =  -3.27450142807726E-04  1.34370858815040E-01
 cg2d: Sum(rhs),rhsMax =  -3.27987557594113E-04  1.34390071196037E-01
 cg2d: Sum(rhs),rhsMax =  -3.28524770764420E-04  1.34409251994332E-01
 cg2d: Sum(rhs),rhsMax =  -3.29061777944894E-04  1.34428401232019E-01
 cg2d: Sum(rhs),rhsMax =  -3.29598574607453E-04  1.34447518931226E-01
 cg2d: Sum(rhs),rhsMax =  -3.30135156481134E-04  1.34466605114116E-01
 cg2d: Sum(rhs),rhsMax =  -3.30671519135644E-04  1.34485659802888E-01
 cg2d: Sum(rhs),rhsMax =  -3.31207658062565E-04  1.34504683019772E-01
 cg2d: Sum(rhs),rhsMax =  -3.31743568771751E-04  1.34523674787037E-01
 cg2d: Sum(rhs),rhsMax =  -3.32279246959327E-04  1.34542635126984E-01
 cg2d: Sum(rhs),rhsMax =  -3.32814688146064E-04  1.34561564061947E-01
 cg2d: Sum(rhs),rhsMax =  -3.33349887905013E-04  1.34580461614297E-01
 cg2d: Sum(rhs),rhsMax =  -3.33884841878939E-04  1.34599327806439E-01
 cg2d: Sum(rhs),rhsMax =  -3.34419545557487E-04  1.34618162660810E-01
 cg2d: Sum(rhs),rhsMax =  -3.34953994598182E-04  1.34636966199883E-01
 cg2d: Sum(rhs),rhsMax =  -3.35488184545252E-04  1.34655738446163E-01
 cg2d: Sum(rhs),rhsMax =  -3.36022111007000E-04  1.34674479422191E-01
 cg2d: Sum(rhs),rhsMax =  -3.36555769634270E-04  1.34693189150542E-01
 cg2d: Sum(rhs),rhsMax =  -3.37089155958862E-04  1.34711867653822E-01
 cg2d: Sum(rhs),rhsMax =  -3.37622265545456E-04  1.34730514954675E-01
 cg2d: Sum(rhs),rhsMax =  -3.38155094151765E-04  1.34749131075775E-01
 cg2d: Sum(rhs),rhsMax =  -3.38687637349113E-04  1.34767716039830E-01
 cg2d: Sum(rhs),rhsMax =  -3.39219890583498E-04  1.34786269869585E-01
 cg2d: Sum(rhs),rhsMax =  -3.39751849548663E-04  1.34804792587814E-01
 cg2d: Sum(rhs),rhsMax =  -3.40283509957585E-04  1.34823284217327E-01
 cg2d: Sum(rhs),rhsMax =  -3.40814867312524E-04  1.34841744780967E-01
 cg2d: Sum(rhs),rhsMax =  -3.41345917281828E-04  1.34860174301608E-01
 cg2d: Sum(rhs),rhsMax =  -3.41876655520729E-04  1.34878572802162E-01
 cg2d: Sum(rhs),rhsMax =  -3.42407077760748E-04  1.34896940305569E-01
 cg2d: Sum(rhs),rhsMax =  -3.42937179374250E-04  1.34915276834806E-01
 cg2d: Sum(rhs),rhsMax =  -3.43466956081196E-04  1.34933582412880E-01
 cg2d: Sum(rhs),rhsMax =  -3.43996403697438E-04  1.34951857062834E-01
 cg2d: Sum(rhs),rhsMax =  -3.44525517617605E-04  1.34970100807739E-01
 cg2d: Sum(rhs),rhsMax =  -3.45054293744046E-04  1.34988313670705E-01
 cg2d: Sum(rhs),rhsMax =  -3.45582727588856E-04  1.35006495674871E-01
 cg2d: Sum(rhs),rhsMax =  -3.46110814817599E-04  1.35024646843407E-01
 cg2d: Sum(rhs),rhsMax =  -3.46638551059502E-04  1.35042767199520E-01
 cg2d: Sum(rhs),rhsMax =  -3.47165932000016E-04  1.35060856766447E-01
 cg2d: Sum(rhs),rhsMax =  -3.47692953277017E-04  1.35078915567458E-01
 cg2d: Sum(rhs),rhsMax =  -3.48219610628510E-04  1.35096943625854E-01
 cg2d: Sum(rhs),rhsMax =  -3.48745899684539E-04  1.35114940964971E-01
 cg2d: Sum(rhs),rhsMax =  -3.49271816121282E-04  1.35132907608174E-01
 cg2d: Sum(rhs),rhsMax =  -3.49797355670374E-04  1.35150843578863E-01
 cg2d: Sum(rhs),rhsMax =  -3.50322514025342E-04  1.35168748900469E-01
 cg2d: Sum(rhs),rhsMax =  -3.50847286801704E-04  1.35186623596455E-01
 cg2d: Sum(rhs),rhsMax =  -3.51371669804276E-04  1.35204467690315E-01
 cg2d: Sum(rhs),rhsMax =  -3.51895658709666E-04  1.35222281205577E-01
 cg2d: Sum(rhs),rhsMax =  -3.52419249194386E-04  1.35240064165799E-01
 cg2d: Sum(rhs),rhsMax =  -3.52942436962326E-04  1.35257816594572E-01
 cg2d: Sum(rhs),rhsMax =  -3.53465217694624E-04  1.35275538515518E-01
 cg2d: Sum(rhs),rhsMax =  -3.53987587195951E-04  1.35293229952291E-01
 cg2d: Sum(rhs),rhsMax =  -3.54509541245168E-04  1.35310890928575E-01
 cg2d: Sum(rhs),rhsMax =  -3.55031075410876E-04  1.35328521468088E-01
 cg2d: Sum(rhs),rhsMax =  -3.55552185611232E-04  1.35346121594577E-01
 cg2d: Sum(rhs),rhsMax =  -3.56072867505532E-04  1.35363691331824E-01
 cg2d: Sum(rhs),rhsMax =  -3.56593116917474E-04  1.35381230703637E-01
 cg2d: Sum(rhs),rhsMax =  -3.57112929598402E-04  1.35398739733859E-01
(PID.TID 0000.0001)      cg2d_init_res =   2.01464097121762E-03
(PID.TID 0000.0001)      cg2d_iters(min,last) =      -1      81
(PID.TID 0000.0001)      cg2d_last_res =   9.24504772821068E-08
(PID.TID 0000.0001) // =======================================================
(PID.TID 0000.0001) // Begin MONITOR dynamic field statistics
(PID.TID 0000.0001) // =======================================================
(PID.TID 0000.0001) %MON time_tsnumber                =                  2736
(PID.TID 0000.0001) %MON time_secondsf                =   3.2832000000000E+06
(PID.TID 0000.0001) %MON dynstat_eta_max              =   6.4604896858019E-02
(PID.TID 0000.0001) %MON dynstat_eta_min              =  -1.9920693221501E-02
(PID.TID 0000.0001) %MON dynstat_eta_mean             =   2.4214606910109E-07
(PID.TID 0000.0001) %MON dynstat_eta_sd               =   1.9619679105083E-02
(PID.TID 0000.0001) %MON dynstat_eta_del2             =   1.3930794892446E-05
(PID.TID 0000.0001) %MON dynstat_uvel_max             =   2.4003686591994E-02
(PID.TID 0000.0001) %MON dynstat_uvel_min             =  -1.8454976274893E-02
(PID.TID 0000.0001) %MON dynstat_uvel_mean            =   2.4491482652120E-07
(PID.TID 0000.0001) %MON dynstat_uvel_sd              =   6.6930103235035E-03
(PID.TID 0000.0001) %MON dynstat_uvel_del2            =   7.1834909444286E-06
(PID.TID 0000.0001) %MON dynstat_vvel_max             =   8.3427487934913E-02
(PID.TID 0000.0001) %MON dynstat_vvel_min             =  -2.2107727971823E-02
(PID.TID 0000.0001) %MON dynstat_vvel_mean            =   2.5347307020069E-08
(PID.TID 0000.0001) %MON dynstat_vvel_sd              =   1.5516206923668E-02
(PID.TID 0000.0001) %MON dynstat_vvel_del2            =   5.8723324230111E-05
(PID.TID 0000.0001) %MON dynstat_wvel_max             =   1.1468591629528E-08
(PID.TID 0000.0001) %MON dynstat_wvel_min             =  -2.3844538009726E-08
(PID.TID 0000.0001) %MON dynstat_wvel_mean            =   4.6674267650815E-21
(PID.TID 0000.0001) %MON dynstat_wvel_sd              =   8.2414883318117E-09
(PID.TID 0000.0001) %MON dynstat_wvel_del2            =   5.0740732259402E-12
(PID.TID 0000.0001) %MON dynstat_theta_max            =   2.0000000000000E+01
(PID.TID 0000.0001) %MON dynstat_theta_min            =   2.0000000000000E+01
(PID.TID 0000.0001) %MON dynstat_theta_mean           =   2.0000000000000E+01
(PID.TID 0000.0001) %MON dynstat_theta_sd             =   0.0000000000000E+00
(PID.TID 0000.0001) %MON dynstat_theta_del2           =   0.0000000000000E+00
(PID.TID 0000.0001) %MON dynstat_salt_max             =   3.0000000000000E+01
(PID.TID 0000.0001) %MON dynstat_salt_min             =   3.0000000000000E+01
(PID.TID 0000.0001) %MON dynstat_salt_mean            =   3.0000000000000E+01
(PID.TID 0000.0001) %MON dynstat_salt_sd              =   0.0000000000000E+00
(PID.TID 0000.0001) %MON dynstat_salt_del2            =   0.0000000000000E+00
(PID.TID 0000.0001) %MON trAdv_CFL_u_max              =   1.4400647970606E-03
(PID.TID 0000.0001) %MON trAdv_CFL_v_max              =   5.0049076723643E-03
(PID.TID 0000.0001) %MON trAdv_CFL_w_max              =   2.7564558075741E-09
(PID.TID 0000.0001) %MON advcfl_uvel_max              =   1.4402211955196E-03
(PID.TID 0000.0001) %MON advcfl_vvel_max              =   5.0056492760948E-03
(PID.TID 0000.0001) %MON advcfl_wvel_max              =   1.1445378244668E-08
(PID.TID 0000.0001) %MON advcfl_W_hf_max              =   0.0000000000000E+00
(PID.TID 0000.0001) %MON pe_b_mean                    =   3.7761810388842E-07
(PID.TID 0000.0001) %MON ke_max                       =   3.4762705905837E-03
(PID.TID 0000.0001) %MON ke_mean                      =   1.4039495673670E-04
(PID.TID 0000.0001) %MON ke_vol                       =   7.2000000000000E+15
(PID.TID 0000.0001) %MON vort_r_min                   =  -9.8826973308305E-07
(PID.TID 0000.0001) %MON vort_r_max                   =   2.2715934627189E-06
(PID.TID 0000.0001) %MON vort_a_mean                  =   1.0600000000000E-04
(PID.TID 0000.0001) %MON vort_a_sd                    =   3.5319849432470E-06
(PID.TID 0000.0001) %MON vort_p_mean                  =   1.1130000000000E-04
(PID.TID 0000.0001) %MON vort_p_sd                    =   4.1137896740904E-05
(PID.TID 0000.0001) %MON surfExpan_theta_mean         =   9.3343999196804E-20
(PID.TID 0000.0001) %MON surfExpan_salt_mean          =   1.4001749882987E-19
(PID.TID 0000.0001) // =======================================================
(PID.TID 0000.0001) // End MONITOR dynamic field statistics
(PID.TID 0000.0001) // =======================================================
 cg2d: Sum(rhs),rhsMax =  -3.57632301199297E-04  1.35416218446363E-01
 cg2d: Sum(rhs),rhsMax =  -3.58151227565350E-04  1.35433666865054E-01
 cg2d: Sum(rhs),rhsMax =  -3.58669704470241E-04  1.35451085013867E-01
 cg2d: Sum(rhs),rhsMax =  -3.59187727781314E-04  1.35468472916767E-01
 cg2d: Sum(rhs),rhsMax =  -3.59705293241872E-04  1.35485830597751E-01
 cg2d: Sum(rhs),rhsMax =  -3.60222396735286E-04  1.35503158080848E-01
 cg2d: Sum(rhs),rhsMax =  -3.60739033956552E-04  1.35520455390117E-01
 cg2d: Sum(rhs),rhsMax =  -3.61255200799548E-04  1.35537722549644E-01
 cg2d: Sum(rhs),rhsMax =  -3.61770893074107E-04  1.35554959583551E-01
 cg2d: Sum(rhs),rhsMax =  -3.62286106615001E-04  1.35572166515989E-01
 cg2d: Sum(rhs),rhsMax =  -3.62800837313176E-04  1.35589343371136E-01
 cg2d: Sum(rhs),rhsMax =  -3.63315081014448E-04  1.35606490173205E-01
 cg2d: Sum(rhs),rhsMax =  -3.63828833600258E-04  1.35623606946436E-01
 cg2d: Sum(rhs),rhsMax =  -3.64342090845218E-04  1.35640693715101E-01
 cg2d: Sum(rhs),rhsMax =  -3.64854848785742E-04  1.35657750503502E-01
 cg2d: Sum(rhs),rhsMax =  -3.65367103137993E-04  1.35674777335970E-01
 cg2d: Sum(rhs),rhsMax =  -3.65878850023688E-04  1.35691774236869E-01
 cg2d: Sum(rhs),rhsMax =  -3.66390085279802E-04  1.35708741230587E-01
 cg2d: Sum(rhs),rhsMax =  -3.66900804751544E-04  1.35725678341547E-01
 cg2d: Sum(rhs),rhsMax =  -3.67411004532528E-04  1.35742585594202E-01
 cg2d: Sum(rhs),rhsMax =  -3.67920680404899E-04  1.35759463013031E-01
 cg2d: Sum(rhs),rhsMax =  -3.68429828536871E-04  1.35776310622545E-01
 cg2d: Sum(rhs),rhsMax =  -3.68938444726027E-04  1.35793128447287E-01
 cg2d: Sum(rhs),rhsMax =  -3.69446525029196E-04  1.35809916511823E-01
 cg2d: Sum(rhs),rhsMax =  -3.69954065535027E-04  1.35826674840755E-01
 cg2d: Sum(rhs),rhsMax =  -3.70461061987842E-04  1.35843403458711E-01
 cg2d: Sum(rhs),rhsMax =  -3.70967510780680E-04  1.35860102390348E-01
 cg2d: Sum(rhs),rhsMax =  -3.71473407730698E-04  1.35876771660354E-01
 cg2d: Sum(rhs),rhsMax =  -3.71978748890777E-04  1.35893411293446E-01
 cg2d: Sum(rhs),rhsMax =  -3.72483530401395E-04  1.35910021314369E-01
 cg2d: Sum(rhs),rhsMax =  -3.72987748287412E-04  1.35926601747897E-01
 cg2d: Sum(rhs),rhsMax =  -3.73491398719182E-04  1.35943152618834E-01
 cg2d: Sum(rhs),rhsMax =  -3.73994477766105E-04  1.35959673952013E-01
 cg2d: Sum(rhs),rhsMax =  -3.74496981550904E-04  1.35976165772295E-01
 cg2d: Sum(rhs),rhsMax =  -3.74998906311073E-04  1.35992628104569E-01
 cg2d: Sum(rhs),rhsMax =  -3.75500248093232E-04  1.36009060973754E-01
 cg2d: Sum(rhs),rhsMax =  -3.76001003198331E-04  1.36025464404797E-01
 cg2d: Sum(rhs),rhsMax =  -3.76501167672924E-04  1.36041838422676E-01
 cg2d: Sum(rhs),rhsMax =  -3.77000737939585E-04  1.36058183052391E-01
 cg2d: Sum(rhs),rhsMax =  -3.77499710051112E-04  1.36074498318978E-01
 cg2d: Sum(rhs),rhsMax =  -3.77998080271180E-04  1.36090784247497E-01
 cg2d: Sum(rhs),rhsMax =  -3.78495845011005E-04  1.36107040863037E-01
 cg2d: Sum(rhs),rhsMax =  -3.78993000480066E-04  1.36123268190715E-01
 cg2d: Sum(rhs),rhsMax =  -3.79489542954714E-04  1.36139466255677E-01
 cg2d: Sum(rhs),rhsMax =  -3.79985468849196E-04  1.36155635083096E-01
 cg2d: Sum(rhs),rhsMax =  -3.80480774511099E-04  1.36171774698175E-01
 cg2d: Sum(rhs),rhsMax =  -3.80975456167421E-04  1.36187885126141E-01
 cg2d: Sum(rhs),rhsMax =  -3.81469510399835E-04  1.36203966392252E-01
 cg2d: Sum(rhs),rhsMax =  -3.81962933525333E-04  1.36220018521794E-01
 cg2d: Sum(rhs),rhsMax =  -3.82455722053236E-04  1.36236041540077E-01
 cg2d: Sum(rhs),rhsMax =  -3.82947872335385E-04  1.36252035472444E-01
 cg2d: Sum(rhs),rhsMax =  -3.83439381009218E-04  1.36268000344261E-01
 cg2d: Sum(rhs),rhsMax =  -3.83930244500268E-04  1.36283936180925E-01
 cg2d: Sum(rhs),rhsMax =  -3.84420459354934E-04  1.36299843007856E-01
 cg2d: Sum(rhs),rhsMax =  -3.84910022124555E-04  1.36315720850506E-01
 cg2d: Sum(rhs),rhsMax =  -3.85398929364720E-04  1.36331569734350E-01
 cg2d: Sum(rhs),rhsMax =  -3.85887177838508E-04  1.36347389684895E-01
 cg2d: Sum(rhs),rhsMax =  -3.86374764075314E-04  1.36363180727671E-01
 cg2d: Sum(rhs),rhsMax =  -3.86861684753787E-04  1.36378942888236E-01
 cg2d: Sum(rhs),rhsMax =  -3.87347936561251E-04  1.36394676192175E-01
 cg2d: Sum(rhs),rhsMax =  -3.87833516328957E-04  1.36410380665102E-01
 cg2d: Sum(rhs),rhsMax =  -3.88318420733906E-04  1.36426056332655E-01
 cg2d: Sum(rhs),rhsMax =  -3.88802646575940E-04  1.36441703220500E-01
 cg2d: Sum(rhs),rhsMax =  -3.89286190511559E-04  1.36457321354330E-01
 cg2d: Sum(rhs),rhsMax =  -3.89769049729696E-04  1.36472910759863E-01
 cg2d: Sum(rhs),rhsMax =  -3.90251220759452E-04  1.36488471462846E-01
 cg2d: Sum(rhs),rhsMax =  -3.90732700774975E-04  1.36504003489050E-01
 cg2d: Sum(rhs),rhsMax =  -3.91213486562601E-04  1.36519506864274E-01
 cg2d: Sum(rhs),rhsMax =  -3.91693575182411E-04  1.36534981614342E-01
 cg2d: Sum(rhs),rhsMax =  -3.92172963599536E-04  1.36550427765107E-01
 cg2d: Sum(rhs),rhsMax =  -3.92651648969806E-04  1.36565845342445E-01
 cg2d: Sum(rhs),rhsMax =  -3.93129628214746E-04  1.36581234372258E-01
(PID.TID 0000.0001)      cg2d_init_res =   1.94643133169044E-03
(PID.TID 0000.0001)      cg2d_iters(min,last) =      -1      81
(PID.TID 0000.0001)      cg2d_last_res =   8.62791770056830E-08
(PID.TID 0000.0001) // =======================================================
(PID.TID 0000.0001) // Begin MONITOR dynamic field statistics
(PID.TID 0000.0001) // =======================================================
(PID.TID 0000.0001) %MON time_tsnumber                =                  2808
(PID.TID 0000.0001) %MON time_secondsf                =   3.3696000000000E+06
(PID.TID 0000.0001) %MON dynstat_eta_max              =   6.4740118220915E-02
(PID.TID 0000.0001) %MON dynstat_eta_min              =  -1.9652411223094E-02
(PID.TID 0000.0001) %MON dynstat_eta_mean             =   2.6882681033694E-07
(PID.TID 0000.0001) %MON dynstat_eta_sd               =   1.9272818160164E-02
(PID.TID 0000.0001) %MON dynstat_eta_del2             =   1.4246764667788E-05
(PID.TID 0000.0001) %MON dynstat_uvel_max             =   2.4177856087437E-02
(PID.TID 0000.0001) %MON dynstat_uvel_min             =  -1.8254894606749E-02
(PID.TID 0000.0001) %MON dynstat_uvel_mean            =   2.6313141689443E-07
(PID.TID 0000.0001) %MON dynstat_uvel_sd              =   6.5955073240604E-03
(PID.TID 0000.0001) %MON dynstat_uvel_del2            =   7.0835047197850E-06
(PID.TID 0000.0001) %MON dynstat_vvel_max             =   8.4258959258077E-02
(PID.TID 0000.0001) %MON dynstat_vvel_min             =  -2.2981169810698E-02
(PID.TID 0000.0001) %MON dynstat_vvel_mean            =   2.3377577258899E-08
(PID.TID 0000.0001) %MON dynstat_vvel_sd              =   1.5611418239441E-02
(PID.TID 0000.0001) %MON dynstat_vvel_del2            =   5.9773874364861E-05
(PID.TID 0000.0001) %MON dynstat_wvel_max             =   1.0299859065562E-08
(PID.TID 0000.0001) %MON dynstat_wvel_min             =  -2.4045501763467E-08
(PID.TID 0000.0001) %MON dynstat_wvel_mean            =  -4.5404239143762E-21
(PID.TID 0000.0001) %MON dynstat_wvel_sd              =   8.2357865493505E-09
(PID.TID 0000.0001) %MON dynstat_wvel_del2            =   4.9881918612262E-12
(PID.TID 0000.0001) %MON dynstat_theta_max            =   2.0000000000000E+01
(PID.TID 0000.0001) %MON dynstat_theta_min            =   2.0000000000000E+01
(PID.TID 0000.0001) %MON dynstat_theta_mean           =   2.0000000000000E+01
(PID.TID 0000.0001) %MON dynstat_theta_sd             =   0.0000000000000E+00
(PID.TID 0000.0001) %MON dynstat_theta_del2           =   0.0000000000000E+00
(PID.TID 0000.0001) %MON dynstat_salt_max             =   3.0000000000000E+01
(PID.TID 0000.0001) %MON dynstat_salt_min             =   3.0000000000000E+01
(PID.TID 0000.0001) %MON dynstat_salt_mean            =   3.0000000000000E+01
(PID.TID 0000.0001) %MON dynstat_salt_sd              =   0.0000000000000E+00
(PID.TID 0000.0001) %MON dynstat_salt_del2            =   0.0000000000000E+00
(PID.TID 0000.0001) %MON trAdv_CFL_u_max              =   1.4505368829405E-03
(PID.TID 0000.0001) %MON trAdv_CFL_v_max              =   5.0548913890094E-03
(PID.TID 0000.0001) %MON trAdv_CFL_w_max              =   2.4758313937113E-09
(PID.TID 0000.0001) %MON advcfl_uvel_max              =   1.4506713652462E-03
(PID.TID 0000.0001) %MON advcfl_vvel_max              =   5.0555375554846E-03
(PID.TID 0000.0001) %MON advcfl_wvel_max              =   1.1541840846464E-08
(PID.TID 0000.0001) %MON advcfl_W_hf_max              =   0.0000000000000E+00
(PID.TID 0000.0001) %MON pe_b_mean                    =   3.6438413102877E-07
(PID.TID 0000.0001) %MON ke_max                       =   3.5453786827002E-03
(PID.TID 0000.0001) %MON ke_mean                      =   1.4121507238598E-04
(PID.TID 0000.0001) %MON ke_vol                       =   7.2000000000000E+15
(PID.TID 0000.0001) %MON vort_r_min                   =  -1.0194452521953E-06
(PID.TID 0000.0001) %MON vort_r_max                   =   2.2859683758064E-06
(PID.TID 0000.0001) %MON vort_a_mean                  =   1.0600000000000E-04
(PID.TID 0000.0001) %MON vort_a_sd                    =   3.5323680151610E-06
(PID.TID 0000.0001) %MON vort_p_mean                  =   1.1130000000000E-04
(PID.TID 0000.0001) %MON vort_p_sd                    =   4.1139042090318E-05
(PID.TID 0000.0001) %MON surfExpan_theta_mean         =  -9.0812730175255E-20
(PID.TID 0000.0001) %MON surfExpan_salt_mean          =  -1.3621641099033E-19
(PID.TID 0000.0001) // =======================================================
(PID.TID 0000.0001) // End MONITOR dynamic field statistics
(PID.TID 0000.0001) // =======================================================
 cg2d: Sum(rhs),rhsMax =  -3.93606898575035E-04  1.36596594880478E-01
 cg2d: Sum(rhs),rhsMax =  -3.94083457131442E-04  1.36611926893058E-01
 cg2d: Sum(rhs),rhsMax =  -3.94559301175512E-04  1.36627230435980E-01
 cg2d: Sum(rhs),rhsMax =  -3.95034427775968E-04  1.36642505535251E-01
 cg2d: Sum(rhs),rhsMax =  -3.95508834334706E-04  1.36657752216904E-01
 cg2d: Sum(rhs),rhsMax =  -3.95982518169980E-04  1.36672970506997E-01
 cg2d: Sum(rhs),rhsMax =  -3.96455476532808E-04  1.36688160431614E-01
 cg2d: Sum(rhs),rhsMax =  -3.96927706933788E-04  1.36703322016865E-01
 cg2d: Sum(rhs),rhsMax =  -3.97399206837613E-04  1.36718455288883E-01
 cg2d: Sum(rhs),rhsMax =  -3.97869973463380E-04  1.36733560273830E-01
 cg2d: Sum(rhs),rhsMax =  -3.98340004711237E-04  1.36748636997893E-01
 cg2d: Sum(rhs),rhsMax =  -3.98809297913505E-04  1.36763685487279E-01
 cg2d: Sum(rhs),rhsMax =  -3.99277850650265E-04  1.36778705768227E-01
 cg2d: Sum(rhs),rhsMax =  -3.99745660754710E-04  1.36793697866997E-01
 cg2d: Sum(rhs),rhsMax =  -4.00212725798424E-04  1.36808661809875E-01
 cg2d: Sum(rhs),rhsMax =  -4.00679043663079E-04  1.36823597623172E-01
 cg2d: Sum(rhs),rhsMax =  -4.01144612083567E-04  1.36838505333224E-01
 cg2d: Sum(rhs),rhsMax =  -4.01609428819373E-04  1.36853384966391E-01
 cg2d: Sum(rhs),rhsMax =  -4.02073491900946E-04  1.36868236549060E-01
 cg2d: Sum(rhs),rhsMax =  -4.02536799327584E-04  1.36883060107639E-01
 cg2d: Sum(rhs),rhsMax =  -4.02999348941263E-04  1.36897855668564E-01
 cg2d: Sum(rhs),rhsMax =  -4.03461138859616E-04  1.36912623258294E-01
 cg2d: Sum(rhs),rhsMax =  -4.03922167183443E-04  1.36927362903312E-01
 cg2d: Sum(rhs),rhsMax =  -4.04382432221478E-04  1.36942074630125E-01
 cg2d: Sum(rhs),rhsMax =  -4.04841932087797E-04  1.36956758465267E-01
 cg2d: Sum(rhs),rhsMax =  -4.05300665050452E-04  1.36971414435294E-01
 cg2d: Sum(rhs),rhsMax =  -4.05758629375699E-04  1.36986042566784E-01
 cg2d: Sum(rhs),rhsMax =  -4.06215823629144E-04  1.37000642886345E-01
 cg2d: Sum(rhs),rhsMax =  -4.06672246156171E-04  1.37015215420604E-01
 cg2d: Sum(rhs),rhsMax =  -4.07127895548965E-04  1.37029760196214E-01
 cg2d: Sum(rhs),rhsMax =  -4.07582770309656E-04  1.37044277239850E-01
 cg2d: Sum(rhs),rhsMax =  -4.08036869179442E-04  1.37058766578213E-01
 cg2d: Sum(rhs),rhsMax =  -4.08490190821673E-04  1.37073228238026E-01
 cg2d: Sum(rhs),rhsMax =  -4.08942733863020E-04  1.37087662246039E-01
 cg2d: Sum(rhs),rhsMax =  -4.09394497366660E-04  1.37102068629019E-01
 cg2d: Sum(rhs),rhsMax =  -4.09845480122835E-04  1.37116447413763E-01
 cg2d: Sum(rhs),rhsMax =  -4.10295681062589E-04  1.37130798627088E-01
 cg2d: Sum(rhs),rhsMax =  -4.10745099304426E-04  1.37145122295836E-01
 cg2d: Sum(rhs),rhsMax =  -4.11193733814395E-04  1.37159418446869E-01
 cg2d: Sum(rhs),rhsMax =  -4.11641583947626E-04  1.37173687107078E-01
 cg2d: Sum(rhs),rhsMax =  -4.12088648836143E-04  1.37187928303372E-01
 cg2d: Sum(rhs),rhsMax =  -4.13481680006794E-04  1.37202141979682E-01
 cg2d: Sum(rhs),rhsMax =  -4.14872473153065E-04  1.37216328270355E-01
 cg2d: Sum(rhs),rhsMax =  -4.16260925970297E-04  1.37230487206615E-01
 cg2d: Sum(rhs),rhsMax =  -4.17646917141869E-04  1.37244618778959E-01
 cg2d: Sum(rhs),rhsMax =  -4.19030379294276E-04  1.37258723011010E-01
 cg2d: Sum(rhs),rhsMax =  -4.20411294845740E-04  1.37272799940216E-01
 cg2d: Sum(rhs),rhsMax =  -4.21789672965431E-04  1.37286849600526E-01
 cg2d: Sum(rhs),rhsMax =  -4.23165524260223E-04  1.37300872018675E-01
 cg2d: Sum(rhs),rhsMax =  -4.24538848162917E-04  1.37314867218214E-01
 cg2d: Sum(rhs),rhsMax =  -4.25909631376071E-04  1.37328835223423E-01
 cg2d: Sum(rhs),rhsMax =  -4.27277853321952E-04  1.37342776060541E-01
 cg2d: Sum(rhs),rhsMax =  -4.28727511531155E-04  1.37356689729426E-01
 cg2d: Sum(rhs),rhsMax =  -4.30174114288587E-04  1.37370576315933E-01
 cg2d: Sum(rhs),rhsMax =  -4.31617591917378E-04  1.37384435812029E-01
 cg2d: Sum(rhs),rhsMax =  -4.33057945189169E-04  1.37398268253762E-01
 cg2d: Sum(rhs),rhsMax =  -4.34495162345582E-04  1.37412073665674E-01
 cg2d: Sum(rhs),rhsMax =  -4.35929231495170E-04  1.37425852074463E-01
 cg2d: Sum(rhs),rhsMax =  -4.37360140356279E-04  1.37439603507793E-01
 cg2d: Sum(rhs),rhsMax =  -4.38787875970651E-04  1.37453327993114E-01
 cg2d: Sum(rhs),rhsMax =  -4.40212424844410E-04  1.37467025557701E-01
 cg2d: Sum(rhs),rhsMax =  -4.41633773543742E-04  1.37480696228837E-01
 cg2d: Sum(rhs),rhsMax =  -4.43051908420159E-04  1.37494340033887E-01
 cg2d: Sum(rhs),rhsMax =  -4.44466816100456E-04  1.37507957000273E-01
 cg2d: Sum(rhs),rhsMax =  -4.45878483291699E-04  1.37521547155456E-01
 cg2d: Sum(rhs),rhsMax =  -4.47286896737282E-04  1.37535110526913E-01
 cg2d: Sum(rhs),rhsMax =  -4.48692042888476E-04  1.37548647142142E-01
 cg2d: Sum(rhs),rhsMax =  -4.50093908439131E-04  1.37562157028663E-01
 cg2d: Sum(rhs),rhsMax =  -4.51492479958162E-04  1.37575640214013E-01
 cg2d: Sum(rhs),rhsMax =  -4.52887743874532E-04  1.37589096725745E-01
 cg2d: Sum(rhs),rhsMax =  -4.54279686863511E-04  1.37602526591430E-01
 cg2d: Sum(rhs),rhsMax =  -4.55668295105848E-04  1.37615929838656E-01
(PID.TID 0000.0001)      cg2d_init_res =   1.88615405701392E-03
(PID.TID 0000.0001)      cg2d_iters(min,last) =      -1      74
(PID.TID 0000.0001)      cg2d_last_res =   9.25862995706995E-08
(PID.TID 0000.0001) // =======================================================
(PID.TID 0000.0001) // Begin MONITOR dynamic field statistics
(PID.TID 0000.0001) // =======================================================
(PID.TID 0000.0001) %MON time_tsnumber                =                  2880
(PID.TID 0000.0001) %MON time_secondsf                =   3.4560000000000E+06
(PID.TID 0000.0001) %MON dynstat_eta_max              =   6.4714798735235E-02
(PID.TID 0000.0001) %MON dynstat_eta_min              =  -1.9424272496139E-02
(PID.TID 0000.0001) %MON dynstat_eta_mean             =   3.1451981917699E-07
(PID.TID 0000.0001) %MON dynstat_eta_sd               =   1.8917177144122E-02
(PID.TID 0000.0001) %MON dynstat_eta_del2             =   1.4548338881373E-05
(PID.TID 0000.0001) %MON dynstat_uvel_max             =   2.4326822530591E-02
(PID.TID 0000.0001) %MON dynstat_uvel_min             =  -1.8026851101116E-02
(PID.TID 0000.0001) %MON dynstat_uvel_mean            =   2.7678150417353E-07
(PID.TID 0000.0001) %MON dynstat_uvel_sd              =   6.5028766623046E-03
(PID.TID 0000.0001) %MON dynstat_uvel_del2            =   6.9947146731847E-06
(PID.TID 0000.0001) %MON dynstat_vvel_max             =   8.4978430197872E-02
(PID.TID 0000.0001) %MON dynstat_vvel_min             =  -2.3758348354484E-02
(PID.TID 0000.0001) %MON dynstat_vvel_mean            =   2.1223941462024E-08
(PID.TID 0000.0001) %MON dynstat_vvel_sd              =   1.5691471387641E-02
(PID.TID 0000.0001) %MON dynstat_vvel_del2            =   6.0756795530144E-05
(PID.TID 0000.0001) %MON dynstat_wvel_max             =   1.0723847685513E-08
(PID.TID 0000.0001) %MON dynstat_wvel_min             =  -2.4161220980459E-08
(PID.TID 0000.0001) %MON dynstat_wvel_mean            =  -2.9029726849533E-21
(PID.TID 0000.0001) %MON dynstat_wvel_sd              =   8.2235067087223E-09
(PID.TID 0000.0001) %MON dynstat_wvel_del2            =   4.9048131619734E-12
(PID.TID 0000.0001) %MON dynstat_theta_max            =   2.0000000000000E+01
(PID.TID 0000.0001) %MON dynstat_theta_min            =   2.0000000000000E+01
(PID.TID 0000.0001) %MON dynstat_theta_mean           =   2.0000000000000E+01
(PID.TID 0000.0001) %MON dynstat_theta_sd             =   0.0000000000000E+00
(PID.TID 0000.0001) %MON dynstat_theta_del2           =   0.0000000000000E+00
(PID.TID 0000.0001) %MON dynstat_salt_max             =   3.0000000000000E+01
(PID.TID 0000.0001) %MON dynstat_salt_min             =   3.0000000000000E+01
(PID.TID 0000.0001) %MON dynstat_salt_mean            =   3.0000000000000E+01
(PID.TID 0000.0001) %MON dynstat_salt_sd              =   0.0000000000000E+00
(PID.TID 0000.0001) %MON dynstat_salt_del2            =   0.0000000000000E+00
(PID.TID 0000.0001) %MON trAdv_CFL_u_max              =   1.4594949653999E-03
(PID.TID 0000.0001) %MON trAdv_CFL_v_max              =   5.0981508403083E-03
(PID.TID 0000.0001) %MON trAdv_CFL_w_max              =   2.5711907663033E-09
(PID.TID 0000.0001) %MON advcfl_uvel_max              =   1.4596093518354E-03
(PID.TID 0000.0001) %MON advcfl_vvel_max              =   5.0987058118723E-03
(PID.TID 0000.0001) %MON advcfl_wvel_max              =   1.1597386070620E-08
(PID.TID 0000.0001) %MON advcfl_W_hf_max              =   0.0000000000000E+00
(PID.TID 0000.0001) %MON pe_b_mean                    =   3.5106025896819E-07
(PID.TID 0000.0001) %MON ke_max                       =   3.6080610514775E-03
(PID.TID 0000.0001) %MON ke_mean                      =   1.4185059230842E-04
(PID.TID 0000.0001) %MON ke_vol                       =   7.2000000000000E+15
(PID.TID 0000.0001) %MON vort_r_min                   =  -1.0496758746227E-06
(PID.TID 0000.0001) %MON vort_r_max                   =   2.2980893223681E-06
(PID.TID 0000.0001) %MON vort_a_mean                  =   1.0600000000000E-04
(PID.TID 0000.0001) %MON vort_a_sd                    =   3.5327277758334E-06
(PID.TID 0000.0001) %MON vort_p_mean                  =   1.1130000000000E-04
(PID.TID 0000.0001) %MON vort_p_sd                    =   4.1140115992770E-05
(PID.TID 0000.0001) %MON surfExpan_theta_mean         =  -5.8064565501405E-20
(PID.TID 0000.0001) %MON surfExpan_salt_mean          =  -8.7095012683373E-20
(PID.TID 0000.0001) // =======================================================
(PID.TID 0000.0001) // End MONITOR dynamic field statistics
(PID.TID 0000.0001) // =======================================================
 cg2d: Sum(rhs),rhsMax =  -4.57053555236848E-04  1.37629306495025E-01
 cg2d: Sum(rhs),rhsMax =  -4.58435453517234E-04  1.37642656588168E-01
 cg2d: Sum(rhs),rhsMax =  -4.59813976650717E-04  1.37655980145731E-01
 cg2d: Sum(rhs),rhsMax =  -4.61189110780162E-04  1.37669277195387E-01
 cg2d: Sum(rhs),rhsMax =  -4.62560842423253E-04  1.37682547764832E-01
 cg2d: Sum(rhs),rhsMax =  -4.63929158021507E-04  1.37695791881783E-01
 cg2d: Sum(rhs),rhsMax =  -4.65294043782253E-04  1.37709009573976E-01
 cg2d: Sum(rhs),rhsMax =  -4.66655486063807E-04  1.37722200869170E-01
 cg2d: Sum(rhs),rhsMax =  -4.68013471252435E-04  1.37735365795140E-01
 cg2d: Sum(rhs),rhsMax =  -4.69367985609409E-04  1.37748504379680E-01
 cg2d: Sum(rhs),rhsMax =  -4.70719015551638E-04  1.37761616650607E-01
 cg2d: Sum(rhs),rhsMax =  -4.72066547251497E-04  1.37774702635753E-01
 cg2d: Sum(rhs),rhsMax =  -4.73410566904561E-04  1.37787762362973E-01
 cg2d: Sum(rhs),rhsMax =  -4.74751061085088E-04  1.37800795860141E-01
 cg2d: Sum(rhs),rhsMax =  -4.76088015764063E-04  1.37813803155152E-01
 cg2d: Sum(rhs),rhsMax =  -4.77421417375759E-04  1.37826784275919E-01
 cg2d: Sum(rhs),rhsMax =  -4.78819387663996E-04  1.37839739595931E-01
 cg2d: Sum(rhs),rhsMax =  -4.80213399615488E-04  1.37852668434869E-01
 cg2d: Sum(rhs),rhsMax =  -4.81603477357542E-04  1.37865571194228E-01
 cg2d: Sum(rhs),rhsMax =  -4.82989594941276E-04  1.37878447894478E-01
 cg2d: Sum(rhs),rhsMax =  -4.84371742693429E-04  1.37891298560717E-01
 cg2d: Sum(rhs),rhsMax =  -4.85749909460944E-04  1.37904123220200E-01
 cg2d: Sum(rhs),rhsMax =  -4.87124083290074E-04  1.37916921901175E-01
 cg2d: Sum(rhs),rhsMax =  -4.88494251938058E-04  1.37929694631904E-01
 cg2d: Sum(rhs),rhsMax =  -4.89860403237279E-04  1.37942441440552E-01
 cg2d: Sum(rhs),rhsMax =  -4.91222525261171E-04  1.37955162355240E-01
 cg2d: Sum(rhs),rhsMax =  -4.92580606441364E-04  1.37967857404080E-01
 cg2d: Sum(rhs),rhsMax =  -4.93934635084184E-04  1.37980526615193E-01
 cg2d: Sum(rhs),rhsMax =  -4.95284599686071E-04  1.37993170016724E-01
 cg2d: Sum(rhs),rhsMax =  -4.96630488442293E-04  1.38005787636845E-01
 cg2d: Sum(rhs),rhsMax =  -4.97972289761466E-04  1.38018379503755E-01
 cg2d: Sum(rhs),rhsMax =  -4.99309991845423E-04  1.38030945645683E-01
 cg2d: Sum(rhs),rhsMax =  -5.00643582994537E-04  1.38043486090874E-01
 cg2d: Sum(rhs),rhsMax =  -5.01973051668581E-04  1.38056000867588E-01
 cg2d: Sum(rhs),rhsMax =  -5.03298386208179E-04  1.38068490004097E-01
 cg2d: Sum(rhs),rhsMax =  -5.04619575107153E-04  1.38080953528692E-01
 cg2d: Sum(rhs),rhsMax =  -5.05936606739730E-04  1.38093391469677E-01
 cg2d: Sum(rhs),rhsMax =  -5.07249469818468E-04  1.38105803855378E-01
 cg2d: Sum(rhs),rhsMax =  -5.08558152764351E-04  1.38118190714138E-01
 cg2d: Sum(rhs),rhsMax =  -5.09862644099162E-04  1.38130552074320E-01
 cg2d: Sum(rhs),rhsMax =  -5.11162932459936E-04  1.38142887964307E-01
 cg2d: Sum(rhs),rhsMax =  -5.12459006570045E-04  1.38155198412498E-01
 cg2d: Sum(rhs),rhsMax =  -5.13750855064212E-04  1.38167483447309E-01
 cg2d: Sum(rhs),rhsMax =  -5.15038466714570E-04  1.38179743097175E-01
 cg2d: Sum(rhs),rhsMax =  -5.16321830412200E-04  1.38191977390548E-01
 cg2d: Sum(rhs),rhsMax =  -5.17600935064994E-04  1.38204186355896E-01
 cg2d: Sum(rhs),rhsMax =  -5.18875769492738E-04  1.38216370021704E-01
 cg2d: Sum(rhs),rhsMax =  -5.20146322664517E-04  1.38228528416476E-01
 cg2d: Sum(rhs),rhsMax =  -5.21412583760225E-04  1.38240661568733E-01
 cg2d: Sum(rhs),rhsMax =  -5.22674541791004E-04  1.38252769507010E-01
 cg2d: Sum(rhs),rhsMax =  -5.23932186059323E-04  1.38264852259863E-01
 cg2d: Sum(rhs),rhsMax =  -5.25185505752504E-04  1.38276909855864E-01
 cg2d: Sum(rhs),rhsMax =  -5.26434490197652E-04  1.38288942323600E-01
 cg2d: Sum(rhs),rhsMax =  -5.27679128808157E-04  1.38300949691678E-01
 cg2d: Sum(rhs),rhsMax =  -5.28919411217938E-04  1.38312931988719E-01
 cg2d: Sum(rhs),rhsMax =  -5.30155326937962E-04  1.38324889243362E-01
 cg2d: Sum(rhs),rhsMax =  -5.31386865619878E-04  1.38336821484261E-01
 cg2d: Sum(rhs),rhsMax =  -5.32614017187707E-04  1.38348728740090E-01
 cg2d: Sum(rhs),rhsMax =  -5.33836771409253E-04  1.38360611039535E-01
 cg2d: Sum(rhs),rhsMax =  -5.35055118226287E-04  1.38372468411302E-01
 cg2d: Sum(rhs),rhsMax =  -5.36269047923684E-04  1.38384300884111E-01
 cg2d: Sum(rhs),rhsMax =  -5.37478550550622E-04  1.38396108486699E-01
 cg2d: Sum(rhs),rhsMax =  -5.38683616423541E-04  1.38407891247818E-01
 cg2d: Sum(rhs),rhsMax =  -5.39884235996404E-04  1.38419649196240E-01
 cg2d: Sum(rhs),rhsMax =  -5.41080399783211E-04  1.38431382360748E-01
 cg2d: Sum(rhs),rhsMax =  -5.42272098458390E-04  1.38443090770142E-01
 cg2d: Sum(rhs),rhsMax =  -5.43459322766205E-04  1.38454774453242E-01
 cg2d: Sum(rhs),rhsMax =  -5.44642063646465E-04  1.38466433438879E-01
 cg2d: Sum(rhs),rhsMax =  -5.45820312191973E-04  1.38478067755902E-01
 cg2d: Sum(rhs),rhsMax =  -5.46994059534956E-04  1.38489677433174E-01
 cg2d: Sum(rhs),rhsMax =  -5.48163297040012E-04  1.38501262499575E-01
 cg2d: Sum(rhs),rhsMax =  -5.49328016090917E-04  1.38512822983999E-01
(PID.TID 0000.0001)      cg2d_init_res =   1.83327815507036E-03
(PID.TID 0000.0001)      cg2d_iters(min,last) =      -1      73
(PID.TID 0000.0001)      cg2d_last_res =   8.58007545006577E-08
(PID.TID 0000.0001) // =======================================================
(PID.TID 0000.0001) // Begin MONITOR dynamic field statistics
(PID.TID 0000.0001) // =======================================================
(PID.TID 0000.0001) %MON time_tsnumber                =                  2952
(PID.TID 0000.0001) %MON time_secondsf                =   3.5424000000000E+06
(PID.TID 0000.0001) %MON dynstat_eta_max              =   6.4537096161146E-02
(PID.TID 0000.0001) %MON dynstat_eta_min              =  -1.9239195087531E-02
(PID.TID 0000.0001) %MON dynstat_eta_mean             =   3.8128013072445E-07
(PID.TID 0000.0001) %MON dynstat_eta_sd               =   1.8558176727932E-02
(PID.TID 0000.0001) %MON dynstat_eta_del2             =   1.4835395611017E-05
(PID.TID 0000.0001) %MON dynstat_uvel_max             =   2.4452832739810E-02
(PID.TID 0000.0001) %MON dynstat_uvel_min             =  -1.7774851102776E-02
(PID.TID 0000.0001) %MON dynstat_uvel_mean            =   2.8579301919517E-07
(PID.TID 0000.0001) %MON dynstat_uvel_sd              =   6.4165867333568E-03
(PID.TID 0000.0001) %MON dynstat_uvel_del2            =   6.9173591109510E-06
(PID.TID 0000.0001) %MON dynstat_vvel_max             =   8.5591320917167E-02
(PID.TID 0000.0001) %MON dynstat_vvel_min             =  -2.4526002057510E-02
(PID.TID 0000.0001) %MON dynstat_vvel_mean            =   1.8918007071005E-08
(PID.TID 0000.0001) %MON dynstat_vvel_sd              =   1.5757475709754E-02
(PID.TID 0000.0001) %MON dynstat_vvel_del2            =   6.1673842725574E-05
(PID.TID 0000.0001) %MON dynstat_wvel_max             =   1.1426269102740E-08
(PID.TID 0000.0001) %MON dynstat_wvel_min             =  -2.4206497129053E-08
(PID.TID 0000.0001) %MON dynstat_wvel_mean            =  -7.6938300076613E-22
(PID.TID 0000.0001) %MON dynstat_wvel_sd              =   8.2037817286709E-09
(PID.TID 0000.0001) %MON dynstat_wvel_del2            =   4.8217502906028E-12
(PID.TID 0000.0001) %MON dynstat_theta_max            =   2.0000000000000E+01
(PID.TID 0000.0001) %MON dynstat_theta_min            =   2.0000000000000E+01
(PID.TID 0000.0001) %MON dynstat_theta_mean           =   2.0000000000000E+01
(PID.TID 0000.0001) %MON dynstat_theta_sd             =   0.0000000000000E+00
(PID.TID 0000.0001) %MON dynstat_theta_del2           =   0.0000000000000E+00
(PID.TID 0000.0001) %MON dynstat_salt_max             =   3.0000000000000E+01
(PID.TID 0000.0001) %MON dynstat_salt_min             =   3.0000000000000E+01
(PID.TID 0000.0001) %MON dynstat_salt_mean            =   3.0000000000000E+01
(PID.TID 0000.0001) %MON dynstat_salt_sd              =   0.0000000000000E+00
(PID.TID 0000.0001) %MON dynstat_salt_del2            =   0.0000000000000E+00
(PID.TID 0000.0001) %MON trAdv_CFL_u_max              =   1.4670737544136E-03
(PID.TID 0000.0001) %MON trAdv_CFL_v_max              =   5.1350107063153E-03
(PID.TID 0000.0001) %MON trAdv_CFL_w_max              =   2.7398484009609E-09
(PID.TID 0000.0001) %MON advcfl_uvel_max              =   1.4671699643886E-03
(PID.TID 0000.0001) %MON advcfl_vvel_max              =   5.1354792550300E-03
(PID.TID 0000.0001) %MON advcfl_wvel_max              =   1.1619118621945E-08
(PID.TID 0000.0001) %MON advcfl_W_hf_max              =   0.0000000000000E+00
(PID.TID 0000.0001) %MON pe_b_mean                    =   3.3786221106192E-07
(PID.TID 0000.0001) %MON ke_max                       =   3.6622522391051E-03
(PID.TID 0000.0001) %MON ke_mean                      =   1.4232305784833E-04
(PID.TID 0000.0001) %MON ke_vol                       =   7.2000000000000E+15
(PID.TID 0000.0001) %MON vort_r_min                   =  -1.0789050058560E-06
(PID.TID 0000.0001) %MON vort_r_max                   =   2.3081520288787E-06
(PID.TID 0000.0001) %MON vort_a_mean                  =   1.0600000000000E-04
(PID.TID 0000.0001) %MON vort_a_sd                    =   3.5330643957582E-06
(PID.TID 0000.0001) %MON vort_p_mean                  =   1.1130000000000E-04
(PID.TID 0000.0001) %MON vort_p_sd                    =   4.1141122895208E-05
(PID.TID 0000.0001) %MON surfExpan_theta_mean         =  -1.5398092677464E-20
(PID.TID 0000.0001) %MON surfExpan_salt_mean          =  -2.3099033796825E-20
(PID.TID 0000.0001) // =======================================================
(PID.TID 0000.0001) // End MONITOR dynamic field statistics
(PID.TID 0000.0001) // =======================================================
 cg2d: Sum(rhs),rhsMax =  -5.50488208330491E-04  1.38524358915359E-01
 cg2d: Sum(rhs),rhsMax =  -5.51643865483992E-04  1.38535870322578E-01
 cg2d: Sum(rhs),rhsMax =  -5.52794979486513E-04  1.38547357234598E-01
 cg2d: Sum(rhs),rhsMax =  -5.53941542364452E-04  1.38558819680376E-01
 cg2d: Sum(rhs),rhsMax =  -5.55083546182026E-04  1.38570257688881E-01
 cg2d: Sum(rhs),rhsMax =  -5.56220983419603E-04  1.38581671289100E-01
 cg2d: Sum(rhs),rhsMax =  -5.57353846467276E-04  1.38593060510035E-01
 cg2d: Sum(rhs),rhsMax =  -5.58482127964174E-04  1.38604425380701E-01
 cg2d: Sum(rhs),rhsMax =  -5.59605820810898E-04  1.38615765930130E-01
 cg2d: Sum(rhs),rhsMax =  -5.60724917892486E-04  1.38627082187366E-01
 cg2d: Sum(rhs),rhsMax =  -5.61839412222255E-04  1.38638374181469E-01
 cg2d: Sum(rhs),rhsMax =  -5.62949297135284E-04  1.38649641941515E-01
 cg2d: Sum(rhs),rhsMax =  -5.64054566135693E-04  1.38660885496592E-01
 cg2d: Sum(rhs),rhsMax =  -5.65155212661719E-04  1.38672104875805E-01
 cg2d: Sum(rhs),rhsMax =  -5.66251230447749E-04  1.38683300108270E-01
 cg2d: Sum(rhs),rhsMax =  -5.67342613302904E-04  1.38694471223120E-01
 cg2d: Sum(rhs),rhsMax =  -5.68429355243800E-04  1.38705618249502E-01
 cg2d: Sum(rhs),rhsMax =  -5.69511450376719E-04  1.38716741216575E-01
 cg2d: Sum(rhs),rhsMax =  -5.70588892955105E-04  1.38727840153515E-01
 cg2d: Sum(rhs),rhsMax =  -5.71661677428857E-04  1.38738915089509E-01
 cg2d: Sum(rhs),rhsMax =  -5.72729798240463E-04  1.38749966053760E-01
 cg2d: Sum(rhs),rhsMax =  -5.73793250021896E-04  1.38760993075485E-01
 cg2d: Sum(rhs),rhsMax =  -5.74852027617969E-04  1.38771996183913E-01
 cg2d: Sum(rhs),rhsMax =  -5.75906125698506E-04  1.38782975408287E-01
 cg2d: Sum(rhs),rhsMax =  -5.76955539352876E-04  1.38793930777865E-01
 cg2d: Sum(rhs),rhsMax =  -5.78000263470756E-04  1.38804862321917E-01
 cg2d: Sum(rhs),rhsMax =  -5.79040293217059E-04  1.38815770069728E-01
 cg2d: Sum(rhs),rhsMax =  -5.80075623686998E-04  1.38826654050594E-01
 cg2d: Sum(rhs),rhsMax =  -5.81106250160945E-04  1.38837514293827E-01
 cg2d: Sum(rhs),rhsMax =  -5.82132167682482E-04  1.38848350828750E-01
 cg2d: Sum(rhs),rhsMax =  -5.83153371758689E-04  1.38859163684700E-01
 cg2d: Sum(rhs),rhsMax =  -5.84169857471277E-04  1.38869952891028E-01
 cg2d: Sum(rhs),rhsMax =  -5.85181620246080E-04  1.38880718477096E-01
 cg2d: Sum(rhs),rhsMax =  -5.86188655188264E-04  1.38891460472281E-01
 cg2d: Sum(rhs),rhsMax =  -5.87190957627918E-04  1.38902178905970E-01
 cg2d: Sum(rhs),rhsMax =  -5.88188522677041E-04  1.38912873807566E-01
 cg2d: Sum(rhs),rhsMax =  -5.89181345497227E-04  1.38923545206483E-01
 cg2d: Sum(rhs),rhsMax =  -5.90169420991475E-04  1.38934193132148E-01
 cg2d: Sum(rhs),rhsMax =  -5.91152744165767E-04  1.38944817614000E-01
 cg2d: Sum(rhs),rhsMax =  -5.92131309703626E-04  1.38955418681490E-01
 cg2d: Sum(rhs),rhsMax =  -5.93105112243473E-04  1.38965996364083E-01
 cg2d: Sum(rhs),rhsMax =  -5.94074146178523E-04  1.38976550691255E-01
 cg2d: Sum(rhs),rhsMax =  -5.95038405874369E-04  1.38987081692495E-01
 cg2d: Sum(rhs),rhsMax =  -5.95997885382151E-04  1.38997589397304E-01
 cg2d: Sum(rhs),rhsMax =  -5.96952578568299E-04  1.39008073835194E-01
 cg2d: Sum(rhs),rhsMax =  -5.97902478871503E-04  1.39018535035691E-01
 cg2d: Sum(rhs),rhsMax =  -5.98847579711912E-04  1.39028973028330E-01
 cg2d: Sum(rhs),rhsMax =  -5.99787874080951E-04  1.39039387842661E-01
 cg2d: Sum(rhs),rhsMax =  -6.00723354601768E-04  1.39049779508244E-01
 cg2d: Sum(rhs),rhsMax =  -6.01654013795841E-04  1.39060148054651E-01
 cg2d: Sum(rhs),rhsMax =  -6.02579843520007E-04  1.39070493511466E-01
 cg2d: Sum(rhs),rhsMax =  -6.03500835511306E-04  1.39080815908284E-01
 cg2d: Sum(rhs),rhsMax =  -6.04416980935833E-04  1.39091115274710E-01
 cg2d: Sum(rhs),rhsMax =  -6.05328270583087E-04  1.39101391640364E-01
 cg2d: Sum(rhs),rhsMax =  -6.06234694933194E-04  1.39111645034875E-01
 cg2d: Sum(rhs),rhsMax =  -6.07136243958867E-04  1.39121875487883E-01
 cg2d: Sum(rhs),rhsMax =  -6.08032907045285E-04  1.39132083029040E-01
 cg2d: Sum(rhs),rhsMax =  -6.08924673122315E-04  1.39142267688008E-01
 cg2d: Sum(rhs),rhsMax =  -6.09811530929503E-04  1.39152429494462E-01
 cg2d: Sum(rhs),rhsMax =  -6.10693468242676E-04  1.39162568478086E-01
 cg2d: Sum(rhs),rhsMax =  -6.11570472603574E-04  1.39172684668576E-01
 cg2d: Sum(rhs),rhsMax =  -6.12442531043054E-04  1.39182778095637E-01
 cg2d: Sum(rhs),rhsMax =  -6.13309629988271E-04  1.39192848788988E-01
 cg2d: Sum(rhs),rhsMax =  -6.14171755262362E-04  1.39202896778355E-01
 cg2d: Sum(rhs),rhsMax =  -6.15028892277905E-04  1.39212922093477E-01
 cg2d: Sum(rhs),rhsMax =  -6.15881025751633E-04  1.39222924764102E-01
 cg2d: Sum(rhs),rhsMax =  -6.16728140029744E-04  1.39232904819990E-01
 cg2d: Sum(rhs),rhsMax =  -6.17570218772639E-04  1.39242862290909E-01
 cg2d: Sum(rhs),rhsMax =  -6.18407245055554E-04  1.39252797206640E-01
 cg2d: Sum(rhs),rhsMax =  -6.19239201601577E-04  1.39262709596972E-01
 cg2d: Sum(rhs),rhsMax =  -6.20066070320849E-04  1.39272599491705E-01
 cg2d: Sum(rhs),rhsMax =  -6.20934289167995E-04  1.39282466812539E-01
(PID.TID 0000.0001)      cg2d_init_res =   1.78723142508157E-03
(PID.TID 0000.0001)      cg2d_iters(min,last) =      -1      72
(PID.TID 0000.0001)      cg2d_last_res =   9.95719120183167E-08
(PID.TID 0000.0001) // =======================================================
(PID.TID 0000.0001) // Begin MONITOR dynamic field statistics
(PID.TID 0000.0001) // =======================================================
(PID.TID 0000.0001) %MON time_tsnumber                =                  3024
(PID.TID 0000.0001) %MON time_secondsf                =   3.6288000000000E+06
(PID.TID 0000.0001) %MON dynstat_eta_max              =   6.4216397410905E-02
(PID.TID 0000.0001) %MON dynstat_eta_min              =  -1.9099327433646E-02
(PID.TID 0000.0001) %MON dynstat_eta_mean             =   4.3305771654384E-07
(PID.TID 0000.0001) %MON dynstat_eta_sd               =   1.8201327352545E-02
(PID.TID 0000.0001) %MON dynstat_eta_del2             =   1.5107911554006E-05
(PID.TID 0000.0001) %MON dynstat_uvel_max             =   2.4558239029709E-02
(PID.TID 0000.0001) %MON dynstat_uvel_min             =  -1.7536199876487E-02
(PID.TID 0000.0001) %MON dynstat_uvel_mean            =   2.9015675391149E-07
(PID.TID 0000.0001) %MON dynstat_uvel_sd              =   6.3380166647195E-03
(PID.TID 0000.0001) %MON dynstat_uvel_del2            =   6.8515734735440E-06
(PID.TID 0000.0001) %MON dynstat_vvel_max             =   8.6130742482634E-02
(PID.TID 0000.0001) %MON dynstat_vvel_min             =  -2.5376930083579E-02
(PID.TID 0000.0001) %MON dynstat_vvel_mean            =   1.6492311623522E-08
(PID.TID 0000.0001) %MON dynstat_vvel_sd              =   1.5810572835225E-02
(PID.TID 0000.0001) %MON dynstat_vvel_del2            =   6.2527188764054E-05
(PID.TID 0000.0001) %MON dynstat_wvel_max             =   1.2138544974441E-08
(PID.TID 0000.0001) %MON dynstat_wvel_min             =  -2.4095976421377E-08
(PID.TID 0000.0001) %MON dynstat_wvel_mean            =   6.5369881162446E-22
(PID.TID 0000.0001) %MON dynstat_wvel_sd              =   8.1762607562820E-09
(PID.TID 0000.0001) %MON dynstat_wvel_del2            =   4.7440140878221E-12
(PID.TID 0000.0001) %MON dynstat_theta_max            =   2.0000000000000E+01
(PID.TID 0000.0001) %MON dynstat_theta_min            =   2.0000000000000E+01
(PID.TID 0000.0001) %MON dynstat_theta_mean           =   2.0000000000000E+01
(PID.TID 0000.0001) %MON dynstat_theta_sd             =   0.0000000000000E+00
(PID.TID 0000.0001) %MON dynstat_theta_del2           =   0.0000000000000E+00
(PID.TID 0000.0001) %MON dynstat_salt_max             =   3.0000000000000E+01
(PID.TID 0000.0001) %MON dynstat_salt_min             =   3.0000000000000E+01
(PID.TID 0000.0001) %MON dynstat_salt_mean            =   3.0000000000000E+01
(PID.TID 0000.0001) %MON dynstat_salt_sd              =   0.0000000000000E+00
(PID.TID 0000.0001) %MON dynstat_salt_del2            =   0.0000000000000E+00
(PID.TID 0000.0001) %MON trAdv_CFL_u_max              =   1.4734143120142E-03
(PID.TID 0000.0001) %MON trAdv_CFL_v_max              =   5.1674163720974E-03
(PID.TID 0000.0001) %MON trAdv_CFL_w_max              =   2.9108746529790E-09
(PID.TID 0000.0001) %MON advcfl_uvel_max              =   1.4734943417826E-03
(PID.TID 0000.0001) %MON advcfl_vvel_max              =   5.1678445489581E-03
(PID.TID 0000.0001) %MON advcfl_wvel_max              =   1.1566068682261E-08
(PID.TID 0000.0001) %MON advcfl_W_hf_max              =   0.0000000000000E+00
(PID.TID 0000.0001) %MON pe_b_mean                    =   3.2499383954800E-07
(PID.TID 0000.0001) %MON ke_max                       =   3.7082593705570E-03
(PID.TID 0000.0001) %MON ke_mean                      =   1.4265446211313E-04
(PID.TID 0000.0001) %MON ke_vol                       =   7.2000000000000E+15
(PID.TID 0000.0001) %MON vort_r_min                   =  -1.1070837147992E-06
(PID.TID 0000.0001) %MON vort_r_max                   =   2.3163581784257E-06
(PID.TID 0000.0001) %MON vort_a_mean                  =   1.0600000000000E-04
(PID.TID 0000.0001) %MON vort_a_sd                    =   3.5333783195762E-06
(PID.TID 0000.0001) %MON vort_p_mean                  =   1.1130000000000E-04
(PID.TID 0000.0001) %MON vort_p_sd                    =   4.1142066970358E-05
(PID.TID 0000.0001) %MON surfExpan_theta_mean         =   1.3077303437667E-20
(PID.TID 0000.0001) %MON surfExpan_salt_mean          =   1.9621007288053E-20
(PID.TID 0000.0001) // =======================================================
(PID.TID 0000.0001) // End MONITOR dynamic field statistics
(PID.TID 0000.0001) // =======================================================
 cg2d: Sum(rhs),rhsMax =  -6.21797012208380E-04  1.39292311810588E-01
 cg2d: Sum(rhs),rhsMax =  -6.22654164011879E-04  1.39302134399262E-01
 cg2d: Sum(rhs),rhsMax =  -6.23505734062270E-04  1.39311934610818E-01
 cg2d: Sum(rhs),rhsMax =  -6.24351701891728E-04  1.39321712476091E-01
 cg2d: Sum(rhs),rhsMax =  -6.25192045650740E-04  1.39331468024368E-01
 cg2d: Sum(rhs),rhsMax =  -6.26026742480012E-04  1.39341201285450E-01
 cg2d: Sum(rhs),rhsMax =  -6.26855768401826E-04  1.39350912289392E-01
 cg2d: Sum(rhs),rhsMax =  -6.27679099363661E-04  1.39360601066331E-01
 cg2d: Sum(rhs),rhsMax =  -6.28496711192433E-04  1.39370267646348E-01
 cg2d: Sum(rhs),rhsMax =  -6.29308579738944E-04  1.39379912059392E-01
 cg2d: Sum(rhs),rhsMax =  -6.30114680560445E-04  1.39389534335309E-01
 cg2d: Sum(rhs),rhsMax =  -6.30914989131097E-04  1.39399134503927E-01
 cg2d: Sum(rhs),rhsMax =  -6.31709480755135E-04  1.39408712595117E-01
 cg2d: Sum(rhs),rhsMax =  -6.32498130487602E-04  1.39418268638812E-01
 cg2d: Sum(rhs),rhsMax =  -6.33280913132925E-04  1.39427802664984E-01
 cg2d: Sum(rhs),rhsMax =  -6.34057803809910E-04  1.39437314703623E-01
 cg2d: Sum(rhs),rhsMax =  -6.34828777219500E-04  1.39446804784713E-01
 cg2d: Sum(rhs),rhsMax =  -6.35593808063395E-04  1.39456272938235E-01
 cg2d: Sum(rhs),rhsMax =  -6.36352871239759E-04  1.39465719194168E-01
 cg2d: Sum(rhs),rhsMax =  -6.37105941303197E-04  1.39475143582500E-01
 cg2d: Sum(rhs),rhsMax =  -6.37852993102563E-04  1.39484546133228E-01
 cg2d: Sum(rhs),rhsMax =  -6.38594001397343E-04  1.39493926876365E-01
 cg2d: Sum(rhs),rhsMax =  -6.39328940938953E-04  1.39503285841931E-01
 cg2d: Sum(rhs),rhsMax =  -6.40057786608922E-04  1.39512623059956E-01
 cg2d: Sum(rhs),rhsMax =  -6.40780513250186E-04  1.39521938560479E-01
 cg2d: Sum(rhs),rhsMax =  -6.41497096031370E-04  1.39531232373541E-01
 cg2d: Sum(rhs),rhsMax =  -6.42207509930662E-04  1.39540504529196E-01
 cg2d: Sum(rhs),rhsMax =  -6.42911730180325E-04  1.39549755057505E-01
 cg2d: Sum(rhs),rhsMax =  -6.43609732249688E-04  1.39558983988533E-01
 cg2d: Sum(rhs),rhsMax =  -6.44301491618833E-04  1.39568191352358E-01
 cg2d: Sum(rhs),rhsMax =  -6.44986983952030E-04  1.39577377179063E-01
 cg2d: Sum(rhs),rhsMax =  -6.45666185038447E-04  1.39586541498739E-01
 cg2d: Sum(rhs),rhsMax =  -6.46339071042990E-04  1.39595684341486E-01
 cg2d: Sum(rhs),rhsMax =  -6.47005618075579E-04  1.39604805737409E-01
 cg2d: Sum(rhs),rhsMax =  -6.47665802548813E-04  1.39613905716622E-01
 cg2d: Sum(rhs),rhsMax =  -6.48319601078572E-04  1.39622984309246E-01
 cg2d: Sum(rhs),rhsMax =  -6.48966990578167E-04  1.39632041545410E-01
 cg2d: Sum(rhs),rhsMax =  -6.49607947980741E-04  1.39641077455249E-01
 cg2d: Sum(rhs),rhsMax =  -6.50242450669923E-04  1.39650092068907E-01
 cg2d: Sum(rhs),rhsMax =  -6.50870476097050E-04  1.39659085416531E-01
 cg2d: Sum(rhs),rhsMax =  -6.51492002115182E-04  1.39668057528280E-01
 cg2d: Sum(rhs),rhsMax =  -6.52107006600294E-04  1.39677008434317E-01
 cg2d: Sum(rhs),rhsMax =  -6.52715467831213E-04  1.39685938164812E-01
 cg2d: Sum(rhs),rhsMax =  -6.53317364347032E-04  1.39694846749943E-01
 cg2d: Sum(rhs),rhsMax =  -6.53912674822039E-04  1.39703734219892E-01
 cg2d: Sum(rhs),rhsMax =  -6.54501378440199E-04  1.39712600604851E-01
 cg2d: Sum(rhs),rhsMax =  -6.55083454296515E-04  1.39721445935017E-01
 cg2d: Sum(rhs),rhsMax =  -6.55658881926788E-04  1.39730270240592E-01
 cg2d: Sum(rhs),rhsMax =  -6.56227641206538E-04  1.39739073551788E-01
 cg2d: Sum(rhs),rhsMax =  -6.56789712125239E-04  1.39747855898818E-01
 cg2d: Sum(rhs),rhsMax =  -6.57345074989196E-04  1.39756617311908E-01
 cg2d: Sum(rhs),rhsMax =  -6.57893710435471E-04  1.39765357821283E-01
 cg2d: Sum(rhs),rhsMax =  -6.58435599310114E-04  1.39774077457179E-01
 cg2d: Sum(rhs),rhsMax =  -6.58970722631134E-04  1.39782776249836E-01
 cg2d: Sum(rhs),rhsMax =  -6.59499061863690E-04  1.39791454229502E-01
 cg2d: Sum(rhs),rhsMax =  -6.60020598550374E-04  1.39800111426427E-01
 cg2d: Sum(rhs),rhsMax =  -6.60535314617954E-04  1.39808747870869E-01
 cg2d: Sum(rhs),rhsMax =  -6.61043192229910E-04  1.39817363593095E-01
 cg2d: Sum(rhs),rhsMax =  -6.61544213765066E-04  1.39825958623370E-01
 cg2d: Sum(rhs),rhsMax =  -6.62038361839768E-04  1.39834532991973E-01
 cg2d: Sum(rhs),rhsMax =  -6.62525619455576E-04  1.39843086729181E-01
 cg2d: Sum(rhs),rhsMax =  -6.63005969806672E-04  1.39851619865282E-01
 cg2d: Sum(rhs),rhsMax =  -6.63479396236613E-04  1.39860132430565E-01
 cg2d: Sum(rhs),rhsMax =  -6.63945882456119E-04  1.39868624455328E-01
 cg2d: Sum(rhs),rhsMax =  -6.64405412334729E-04  1.39877095969873E-01
 cg2d: Sum(rhs),rhsMax =  -6.64857970143260E-04  1.39885547004504E-01
 cg2d: Sum(rhs),rhsMax =  -6.65303540255879E-04  1.39893977589536E-01
 cg2d: Sum(rhs),rhsMax =  -6.65742107338480E-04  1.39902387755283E-01
 cg2d: Sum(rhs),rhsMax =  -6.66173656215197E-04  1.39910777532067E-01
 cg2d: Sum(rhs),rhsMax =  -6.66598172185802E-04  1.39919146950215E-01
 cg2d: Sum(rhs),rhsMax =  -6.67015640476248E-04  1.39927496040057E-01
 cg2d: Sum(rhs),rhsMax =  -6.67426046742717E-04  1.39935824831930E-01
(PID.TID 0000.0001)      cg2d_init_res =   1.74740451560394E-03
(PID.TID 0000.0001)      cg2d_iters(min,last) =      -1      72
(PID.TID 0000.0001)      cg2d_last_res =   8.64154356217164E-08
(PID.TID 0000.0001) // =======================================================
(PID.TID 0000.0001) // Begin MONITOR dynamic field statistics
(PID.TID 0000.0001) // =======================================================
(PID.TID 0000.0001) %MON time_tsnumber                =                  3096
(PID.TID 0000.0001) %MON time_secondsf                =   3.7152000000000E+06
(PID.TID 0000.0001) %MON dynstat_eta_max              =   6.3789257588447E-02
(PID.TID 0000.0001) %MON dynstat_eta_min              =  -1.9005971601939E-02
(PID.TID 0000.0001) %MON dynstat_eta_mean             =   4.6729401684977E-07
(PID.TID 0000.0001) %MON dynstat_eta_sd               =   1.7852170463557E-02
(PID.TID 0000.0001) %MON dynstat_eta_del2             =   1.5365957022478E-05
(PID.TID 0000.0001) %MON dynstat_uvel_max             =   2.4648258078329E-02
(PID.TID 0000.0001) %MON dynstat_uvel_min             =  -1.7316216684702E-02
(PID.TID 0000.0001) %MON dynstat_uvel_mean            =   2.8992420310599E-07
(PID.TID 0000.0001) %MON dynstat_uvel_sd              =   6.2684361030886E-03
(PID.TID 0000.0001) %MON dynstat_uvel_del2            =   6.7974292341415E-06
(PID.TID 0000.0001) %MON dynstat_vvel_max             =   8.6598698826684E-02
(PID.TID 0000.0001) %MON dynstat_vvel_min             =  -2.6123605786719E-02
(PID.TID 0000.0001) %MON dynstat_vvel_mean            =   1.3980100852198E-08
(PID.TID 0000.0001) %MON dynstat_vvel_sd              =   1.5851923387163E-02
(PID.TID 0000.0001) %MON dynstat_vvel_del2            =   6.3319386283444E-05
(PID.TID 0000.0001) %MON dynstat_wvel_max             =   1.2845795657340E-08
(PID.TID 0000.0001) %MON dynstat_wvel_min             =  -2.3956512147561E-08
(PID.TID 0000.0001) %MON dynstat_wvel_mean            =  -3.0926353626152E-22
(PID.TID 0000.0001) %MON dynstat_wvel_sd              =   8.1410715499915E-09
(PID.TID 0000.0001) %MON dynstat_wvel_del2            =   4.6686447216685E-12
(PID.TID 0000.0001) %MON dynstat_theta_max            =   2.0000000000000E+01
(PID.TID 0000.0001) %MON dynstat_theta_min            =   2.0000000000000E+01
(PID.TID 0000.0001) %MON dynstat_theta_mean           =   2.0000000000000E+01
(PID.TID 0000.0001) %MON dynstat_theta_sd             =   0.0000000000000E+00
(PID.TID 0000.0001) %MON dynstat_theta_del2           =   0.0000000000000E+00
(PID.TID 0000.0001) %MON dynstat_salt_max             =   3.0000000000000E+01
(PID.TID 0000.0001) %MON dynstat_salt_min             =   3.0000000000000E+01
(PID.TID 0000.0001) %MON dynstat_salt_mean            =   3.0000000000000E+01
(PID.TID 0000.0001) %MON dynstat_salt_sd              =   0.0000000000000E+00
(PID.TID 0000.0001) %MON dynstat_salt_del2            =   0.0000000000000E+00
(PID.TID 0000.0001) %MON trAdv_CFL_u_max              =   1.4787606724347E-03
(PID.TID 0000.0001) %MON trAdv_CFL_v_max              =   5.1955682179264E-03
(PID.TID 0000.0001) %MON trAdv_CFL_w_max              =   3.0806847959786E-09
(PID.TID 0000.0001) %MON advcfl_uvel_max              =   1.4788954846997E-03
(PID.TID 0000.0001) %MON advcfl_vvel_max              =   5.1959219296010E-03
(PID.TID 0000.0001) %MON advcfl_wvel_max              =   1.1499125830829E-08
(PID.TID 0000.0001) %MON advcfl_W_hf_max              =   0.0000000000000E+00
(PID.TID 0000.0001) %MON pe_b_mean                    =   3.1264469065918E-07
(PID.TID 0000.0001) %MON ke_max                       =   3.7464763329537E-03
(PID.TID 0000.0001) %MON ke_mean                      =   1.4286691011482E-04
(PID.TID 0000.0001) %MON ke_vol                       =   7.2000000000000E+15
(PID.TID 0000.0001) %MON vort_r_min                   =  -1.1341707951182E-06
(PID.TID 0000.0001) %MON vort_r_max                   =   2.3229128386170E-06
(PID.TID 0000.0001) %MON vort_a_mean                  =   1.0600000000000E-04
(PID.TID 0000.0001) %MON vort_a_sd                    =   3.5336702408399E-06
(PID.TID 0000.0001) %MON vort_p_mean                  =   1.1130000000000E-04
(PID.TID 0000.0001) %MON vort_p_sd                    =   4.1142952113134E-05
(PID.TID 0000.0001) %MON surfExpan_theta_mean         =  -6.1861028645262E-21
(PID.TID 0000.0001) %MON surfExpan_salt_mean          =  -9.2789769695006E-21
(PID.TID 0000.0001) // =======================================================
(PID.TID 0000.0001) // End MONITOR dynamic field statistics
(PID.TID 0000.0001) // =======================================================
 cg2d: Sum(rhs),rhsMax =  -6.67829376850567E-04  1.39944133356174E-01
 cg2d: Sum(rhs),rhsMax =  -6.68225616749792E-04  1.39952421643131E-01
 cg2d: Sum(rhs),rhsMax =  -6.68614752940747E-04  1.39960689723154E-01
 cg2d: Sum(rhs),rhsMax =  -6.68996771842659E-04  1.39968937626594E-01
 cg2d: Sum(rhs),rhsMax =  -6.69371660279962E-04  1.39977165383810E-01
 cg2d: Sum(rhs),rhsMax =  -6.69739405199668E-04  1.39985373025164E-01
 cg2d: Sum(rhs),rhsMax =  -6.70099993798327E-04  1.39993560581020E-01
 cg2d: Sum(rhs),rhsMax =  -6.70453413501334E-04  1.40001728081751E-01
 cg2d: Sum(rhs),rhsMax =  -6.70799652008303E-04  1.40009875557730E-01
 cg2d: Sum(rhs),rhsMax =  -6.71138697116568E-04  1.40018003039335E-01
 cg2d: Sum(rhs),rhsMax =  -6.71470537037006E-04  1.40026110556947E-01
 cg2d: Sum(rhs),rhsMax =  -6.71795160030285E-04  1.40034198140954E-01
 cg2d: Sum(rhs),rhsMax =  -6.72112554589942E-04  1.40042265821743E-01
 cg2d: Sum(rhs),rhsMax =  -6.72422709482500E-04  1.40050313629708E-01
 cg2d: Sum(rhs),rhsMax =  -6.72725613605012E-04  1.40058341595245E-01
 cg2d: Sum(rhs),rhsMax =  -6.73021256244533E-04  1.40066349748755E-01
 cg2d: Sum(rhs),rhsMax =  -6.73309626668913E-04  1.40074338120639E-01
 cg2d: Sum(rhs),rhsMax =  -6.73590714505799E-04  1.40082306741306E-01
 cg2d: Sum(rhs),rhsMax =  -6.73864509565977E-04  1.40090255641165E-01
 cg2d: Sum(rhs),rhsMax =  -6.74131001846885E-04  1.40098184850629E-01
 cg2d: Sum(rhs),rhsMax =  -6.74390181590672E-04  1.40106094400114E-01
 cg2d: Sum(rhs),rhsMax =  -6.74642039198748E-04  1.40113984320040E-01
 cg2d: Sum(rhs),rhsMax =  -6.74886565271696E-04  1.40121854640827E-01
 cg2d: Sum(rhs),rhsMax =  -6.75123750788566E-04  1.40129705392903E-01
 cg2d: Sum(rhs),rhsMax =  -6.75353586743421E-04  1.40137536606693E-01
 cg2d: Sum(rhs),rhsMax =  -6.75576064434983E-04  1.40145348312628E-01
 cg2d: Sum(rhs),rhsMax =  -6.75791175336194E-04  1.40153140541143E-01
 cg2d: Sum(rhs),rhsMax =  -6.75998910991245E-04  1.40160913322672E-01
 cg2d: Sum(rhs),rhsMax =  -6.76199263553457E-04  1.40168666687653E-01
 cg2d: Sum(rhs),rhsMax =  -6.76392224859254E-04  1.40176400666527E-01
 cg2d: Sum(rhs),rhsMax =  -6.76577787410436E-04  1.40184115289738E-01
 cg2d: Sum(rhs),rhsMax =  -6.76755943556848E-04  1.40191810587729E-01
 cg2d: Sum(rhs),rhsMax =  -6.76926686177366E-04  1.40199486590949E-01
 cg2d: Sum(rhs),rhsMax =  -6.77090008205958E-04  1.40207143329847E-01
 cg2d: Sum(rhs),rhsMax =  -6.77245902695370E-04  1.40214780834875E-01
 cg2d: Sum(rhs),rhsMax =  -6.77394363045713E-04  1.40222399136486E-01
 cg2d: Sum(rhs),rhsMax =  -6.77535382966545E-04  1.40229998265136E-01
 cg2d: Sum(rhs),rhsMax =  -6.77668956021495E-04  1.40237578251282E-01
 cg2d: Sum(rhs),rhsMax =  -6.77795076248011E-04  1.40245139125384E-01
 cg2d: Sum(rhs),rhsMax =  -6.77913737954752E-04  1.40252680917902E-01
 cg2d: Sum(rhs),rhsMax =  -6.78024935454141E-04  1.40260203659298E-01
 cg2d: Sum(rhs),rhsMax =  -6.78128663425967E-04  1.40267707380036E-01
 cg2d: Sum(rhs),rhsMax =  -6.78224916774509E-04  1.40275192110582E-01
 cg2d: Sum(rhs),rhsMax =  -6.78313690393167E-04  1.40282657881402E-01
 cg2d: Sum(rhs),rhsMax =  -6.78394979770506E-04  1.40290104722965E-01
 cg2d: Sum(rhs),rhsMax =  -6.78468780296385E-04  1.40297532665739E-01
 cg2d: Sum(rhs),rhsMax =  -6.78535087687383E-04  1.40304941740196E-01
 cg2d: Sum(rhs),rhsMax =  -6.78593897859040E-04  1.40312331976807E-01
 cg2d: Sum(rhs),rhsMax =  -6.78645207000257E-04  1.40319703406044E-01
 cg2d: Sum(rhs),rhsMax =  -6.78689011403237E-04  1.40327056058382E-01
 cg2d: Sum(rhs),rhsMax =  -6.78725307827878E-04  1.40334389964294E-01
 cg2d: Sum(rhs),rhsMax =  -6.78754092853978E-04  1.40341705154256E-01
 cg2d: Sum(rhs),rhsMax =  -6.78775363658923E-04  1.40349001658742E-01
 cg2d: Sum(rhs),rhsMax =  -6.78789117594874E-04  1.40356279508232E-01
 cg2d: Sum(rhs),rhsMax =  -6.78795351891052E-04  1.40363538733202E-01
 cg2d: Sum(rhs),rhsMax =  -6.78794064440776E-04  1.40370779364128E-01
 cg2d: Sum(rhs),rhsMax =  -6.78785253153186E-04  1.40378001431490E-01
 cg2d: Sum(rhs),rhsMax =  -6.78768916166068E-04  1.40385204965766E-01
 cg2d: Sum(rhs),rhsMax =  -6.78745051878133E-04  1.40392389997434E-01
 cg2d: Sum(rhs),rhsMax =  -6.78713658928239E-04  1.40399556556975E-01
 cg2d: Sum(rhs),rhsMax =  -6.78674736156795E-04  1.40406704674866E-01
 cg2d: Sum(rhs),rhsMax =  -6.78628282748092E-04  1.40413834381587E-01
 cg2d: Sum(rhs),rhsMax =  -6.78574297919617E-04  1.40420945707617E-01
 cg2d: Sum(rhs),rhsMax =  -6.78512781273385E-04  1.40428038683437E-01
 cg2d: Sum(rhs),rhsMax =  -6.78443732491120E-04  1.40435113339523E-01
 cg2d: Sum(rhs),rhsMax =  -6.78367151727461E-04  1.40442169706356E-01
 cg2d: Sum(rhs),rhsMax =  -6.78283039222401E-04  1.40449207814413E-01
 cg2d: Sum(rhs),rhsMax =  -6.78191395395787E-04  1.40456227694174E-01
 cg2d: Sum(rhs),rhsMax =  -6.78092221102114E-04  1.40463229376115E-01
 cg2d: Sum(rhs),rhsMax =  -6.77985517226385E-04  1.40470212890713E-01
 cg2d: Sum(rhs),rhsMax =  -6.77871285100849E-04  1.40477178268446E-01
 cg2d: Sum(rhs),rhsMax =  -6.77749526084124E-04  1.40484125539789E-01
(PID.TID 0000.0001)      cg2d_init_res =   1.71316154126585E-03
(PID.TID 0000.0001)      cg2d_iters(min,last) =      -1      72
(PID.TID 0000.0001)      cg2d_last_res =   8.49470114422693E-08
(PID.TID 0000.0001) // =======================================================
(PID.TID 0000.0001) // Begin MONITOR dynamic field statistics
(PID.TID 0000.0001) // =======================================================
(PID.TID 0000.0001) %MON time_tsnumber                =                  3168
(PID.TID 0000.0001) %MON time_secondsf                =   3.8016000000000E+06
(PID.TID 0000.0001) %MON dynstat_eta_max              =   6.3270043150017E-02
(PID.TID 0000.0001) %MON dynstat_eta_min              =  -1.8959627655476E-02
(PID.TID 0000.0001) %MON dynstat_eta_mean             =   4.7599791248541E-07
(PID.TID 0000.0001) %MON dynstat_eta_sd               =   1.7516206646754E-02
(PID.TID 0000.0001) %MON dynstat_eta_del2             =   1.5609690104712E-05
(PID.TID 0000.0001) %MON dynstat_uvel_max             =   2.4802505939437E-02
(PID.TID 0000.0001) %MON dynstat_uvel_min             =  -1.7082189346011E-02
(PID.TID 0000.0001) %MON dynstat_uvel_mean            =   2.8520571487310E-07
(PID.TID 0000.0001) %MON dynstat_uvel_sd              =   6.2089815596100E-03
(PID.TID 0000.0001) %MON dynstat_uvel_del2            =   6.7549628505218E-06
(PID.TID 0000.0001) %MON dynstat_vvel_max             =   8.6980737515635E-02
(PID.TID 0000.0001) %MON dynstat_vvel_min             =  -2.6770501385212E-02
(PID.TID 0000.0001) %MON dynstat_vvel_mean            =   1.1414890993679E-08
(PID.TID 0000.0001) %MON dynstat_vvel_sd              =   1.5882694622699E-02
(PID.TID 0000.0001) %MON dynstat_vvel_del2            =   6.4053326943792E-05
(PID.TID 0000.0001) %MON dynstat_wvel_max             =   1.3555127102190E-08
(PID.TID 0000.0001) %MON dynstat_wvel_min             =  -2.3653571172617E-08
(PID.TID 0000.0001) %MON dynstat_wvel_mean            =   6.3981124438629E-21
(PID.TID 0000.0001) %MON dynstat_wvel_sd              =   8.0987724671646E-09
(PID.TID 0000.0001) %MON dynstat_wvel_del2            =   4.5974459978953E-12
(PID.TID 0000.0001) %MON dynstat_theta_max            =   2.0000000000000E+01
(PID.TID 0000.0001) %MON dynstat_theta_min            =   2.0000000000000E+01
(PID.TID 0000.0001) %MON dynstat_theta_mean           =   2.0000000000000E+01
(PID.TID 0000.0001) %MON dynstat_theta_sd             =   0.0000000000000E+00
(PID.TID 0000.0001) %MON dynstat_theta_del2           =   0.0000000000000E+00
(PID.TID 0000.0001) %MON dynstat_salt_max             =   3.0000000000000E+01
(PID.TID 0000.0001) %MON dynstat_salt_min             =   3.0000000000000E+01
(PID.TID 0000.0001) %MON dynstat_salt_mean            =   3.0000000000000E+01
(PID.TID 0000.0001) %MON dynstat_salt_sd              =   0.0000000000000E+00
(PID.TID 0000.0001) %MON dynstat_salt_del2            =   0.0000000000000E+00
(PID.TID 0000.0001) %MON trAdv_CFL_u_max              =   1.4880276314857E-03
(PID.TID 0000.0001) %MON trAdv_CFL_v_max              =   5.2185593061647E-03
(PID.TID 0000.0001) %MON trAdv_CFL_w_max              =   3.2509923629957E-09
(PID.TID 0000.0001) %MON advcfl_uvel_max              =   1.4881503563662E-03
(PID.TID 0000.0001) %MON advcfl_vvel_max              =   5.2188442509381E-03
(PID.TID 0000.0001) %MON advcfl_wvel_max              =   1.1353714162856E-08
(PID.TID 0000.0001) %MON advcfl_W_hf_max              =   0.0000000000000E+00
(PID.TID 0000.0001) %MON pe_b_mean                    =   3.0098796310352E-07
(PID.TID 0000.0001) %MON ke_max                       =   3.7773708857689E-03
(PID.TID 0000.0001) %MON ke_mean                      =   1.4298229161209E-04
(PID.TID 0000.0001) %MON ke_vol                       =   7.2000000000000E+15
(PID.TID 0000.0001) %MON vort_r_min                   =  -1.1602398536840E-06
(PID.TID 0000.0001) %MON vort_r_max                   =   2.3280219103843E-06
(PID.TID 0000.0001) %MON vort_a_mean                  =   1.0600000000000E-04
(PID.TID 0000.0001) %MON vort_a_sd                    =   3.5339410737440E-06
(PID.TID 0000.0001) %MON vort_p_mean                  =   1.1130000000000E-04
(PID.TID 0000.0001) %MON vort_p_sd                    =   4.1143781938763E-05
(PID.TID 0000.0001) %MON surfExpan_theta_mean         =   1.2795872016411E-19
(PID.TID 0000.0001) %MON surfExpan_salt_mean          =   1.9193934343385E-19
(PID.TID 0000.0001) // =======================================================
(PID.TID 0000.0001) // End MONITOR dynamic field statistics
(PID.TID 0000.0001) // =======================================================
 cg2d: Sum(rhs),rhsMax =  -6.77620241956069E-04  1.40491054735217E-01
 cg2d: Sum(rhs),rhsMax =  -6.77483434582251E-04  1.40497965885205E-01
 cg2d: Sum(rhs),rhsMax =  -6.77339106239835E-04  1.40504859020226E-01
 cg2d: Sum(rhs),rhsMax =  -6.77187259316517E-04  1.40511734170753E-01
 cg2d: Sum(rhs),rhsMax =  -6.77027896637107E-04  1.40518591367257E-01
 cg2d: Sum(rhs),rhsMax =  -6.76861021022008E-04  1.40525430640208E-01
 cg2d: Sum(rhs),rhsMax =  -6.76686635636290E-04  1.40532252020077E-01
 cg2d: Sum(rhs),rhsMax =  -6.76504743956917E-04  1.40539055537330E-01
 cg2d: Sum(rhs),rhsMax =  -6.76315349729050E-04  1.40545841222435E-01
 cg2d: Sum(rhs),rhsMax =  -6.76118456772771E-04  1.40552609105857E-01
 cg2d: Sum(rhs),rhsMax =  -6.75914069429090E-04  1.40559359218059E-01
 cg2d: Sum(rhs),rhsMax =  -6.75702192071426E-04  1.40566091589505E-01
 cg2d: Sum(rhs),rhsMax =  -6.75482829405202E-04  1.40572806250654E-01
 cg2d: Sum(rhs),rhsMax =  -6.75255986367512E-04  1.40579503231966E-01
 cg2d: Sum(rhs),rhsMax =  -6.75021668250495E-04  1.40586182563898E-01
 cg2d: Sum(rhs),rhsMax =  -6.74779880536156E-04  1.40592844276906E-01
 cg2d: Sum(rhs),rhsMax =  -6.74530628779538E-04  1.40599488401443E-01
 cg2d: Sum(rhs),rhsMax =  -6.74273919118369E-04  1.40606114967960E-01
 cg2d: Sum(rhs),rhsMax =  -6.74009757688891E-04  1.40612724006907E-01
 cg2d: Sum(rhs),rhsMax =  -6.73738151132806E-04  1.40619315548732E-01
 cg2d: Sum(rhs),rhsMax =  -6.73458561684840E-04  1.40626003294794E-01
 cg2d: Sum(rhs),rhsMax =  -6.73167940658354E-04  1.40633425846431E-01
 cg2d: Sum(rhs),rhsMax =  -6.72869897263935E-04  1.40640831470804E-01
 cg2d: Sum(rhs),rhsMax =  -6.72564439191784E-04  1.40648220197640E-01
 cg2d: Sum(rhs),rhsMax =  -6.72251574302347E-04  1.40655592056662E-01
 cg2d: Sum(rhs),rhsMax =  -6.71931311005751E-04  1.40662947077589E-01
 cg2d: Sum(rhs),rhsMax =  -6.71603657636817E-04  1.40670285290138E-01
 cg2d: Sum(rhs),rhsMax =  -6.71268623007064E-04  1.40677606724023E-01
 cg2d: Sum(rhs),rhsMax =  -6.70926216078123E-04  1.40684911408953E-01
 cg2d: Sum(rhs),rhsMax =  -6.70576446043201E-04  1.40692199374637E-01
 cg2d: Sum(rhs),rhsMax =  -6.70219322653363E-04  1.40699470650776E-01
 cg2d: Sum(rhs),rhsMax =  -6.69854855459475E-04  1.40706725267070E-01
 cg2d: Sum(rhs),rhsMax =  -6.69483054705913E-04  1.40713963253216E-01
 cg2d: Sum(rhs),rhsMax =  -6.69103930604987E-04  1.40721184638908E-01
 cg2d: Sum(rhs),rhsMax =  -6.68717493809081E-04  1.40728389453831E-01
 cg2d: Sum(rhs),rhsMax =  -6.68323755189867E-04  1.40735577727674E-01
 cg2d: Sum(rhs),rhsMax =  -6.67922725860479E-04  1.40742749490115E-01
 cg2d: Sum(rhs),rhsMax =  -6.67514417185797E-04  1.40749904770833E-01
 cg2d: Sum(rhs),rhsMax =  -6.67098840846440E-04  1.40757043599500E-01
 cg2d: Sum(rhs),rhsMax =  -6.66676008785312E-04  1.40764166005786E-01
 cg2d: Sum(rhs),rhsMax =  -6.66245933125831E-04  1.40771272019355E-01
 cg2d: Sum(rhs),rhsMax =  -6.65808626399016E-04  1.40778361669870E-01
 cg2d: Sum(rhs),rhsMax =  -6.65364101222326E-04  1.40785434986984E-01
 cg2d: Sum(rhs),rhsMax =  -6.64912370765483E-04  1.40792492000350E-01
 cg2d: Sum(rhs),rhsMax =  -6.64453448151543E-04  1.40799532739617E-01
 cg2d: Sum(rhs),rhsMax =  -6.63987346818184E-04  1.40806557234428E-01
 cg2d: Sum(rhs),rhsMax =  -6.63514080660900E-04  1.40813565514420E-01
 cg2d: Sum(rhs),rhsMax =  -6.63033663849196E-04  1.40820557609227E-01
 cg2d: Sum(rhs),rhsMax =  -6.62546110500094E-04  1.40827533548480E-01
 cg2d: Sum(rhs),rhsMax =  -6.62051435294715E-04  1.40834493361801E-01
 cg2d: Sum(rhs),rhsMax =  -6.61549652971005E-04  1.40841437078810E-01
 cg2d: Sum(rhs),rhsMax =  -6.61040778762574E-04  1.40848364729123E-01
 cg2d: Sum(rhs),rhsMax =  -6.60524827991849E-04  1.40855276342349E-01
 cg2d: Sum(rhs),rhsMax =  -6.60001816323518E-04  1.40862171948091E-01
 cg2d: Sum(rhs),rhsMax =  -6.59471759648268E-04  1.40869051575950E-01
 cg2d: Sum(rhs),rhsMax =  -6.58934674143886E-04  1.40875915255519E-01
 cg2d: Sum(rhs),rhsMax =  -6.58390576049593E-04  1.40882763016387E-01
 cg2d: Sum(rhs),rhsMax =  -6.57839482328437E-04  1.40889594888140E-01
 cg2d: Sum(rhs),rhsMax =  -6.57281409810207E-04  1.40896410900352E-01
 cg2d: Sum(rhs),rhsMax =  -6.56716375643032E-04  1.40903211082598E-01
 cg2d: Sum(rhs),rhsMax =  -6.56144397339814E-04  1.40909995464445E-01
 cg2d: Sum(rhs),rhsMax =  -6.55565492596834E-04  1.40916764075455E-01
 cg2d: Sum(rhs),rhsMax =  -6.54979679386238E-04  1.40923516945181E-01
 cg2d: Sum(rhs),rhsMax =  -6.54386975965462E-04  1.40930254103176E-01
 cg2d: Sum(rhs),rhsMax =  -6.53787400776500E-04  1.40936975578983E-01
 cg2d: Sum(rhs),rhsMax =  -6.53180972642077E-04  1.40943681402140E-01
 cg2d: Sum(rhs),rhsMax =  -6.52567710648397E-04  1.40950371602181E-01
 cg2d: Sum(rhs),rhsMax =  -6.51947633812984E-04  1.40957046208629E-01
 cg2d: Sum(rhs),rhsMax =  -6.51320761837239E-04  1.40963705251007E-01
 cg2d: Sum(rhs),rhsMax =  -6.50687114353747E-04  1.40970348758827E-01
 cg2d: Sum(rhs),rhsMax =  -6.50046711426836E-04  1.40976976761598E-01
 cg2d: Sum(rhs),rhsMax =  -6.49399573366895E-04  1.40983589288821E-01
(PID.TID 0000.0001)      cg2d_init_res =   1.68331599671414E-03
(PID.TID 0000.0001)      cg2d_iters(min,last) =      -1      72
(PID.TID 0000.0001)      cg2d_last_res =   9.39200435808658E-08
(PID.TID 0000.0001) // =======================================================
(PID.TID 0000.0001) // Begin MONITOR dynamic field statistics
(PID.TID 0000.0001) // =======================================================
(PID.TID 0000.0001) %MON time_tsnumber                =                  3240
(PID.TID 0000.0001) %MON time_secondsf                =   3.8880000000000E+06
(PID.TID 0000.0001) %MON dynstat_eta_max              =   6.2642170265667E-02
(PID.TID 0000.0001) %MON dynstat_eta_min              =  -1.8959998766253E-02
(PID.TID 0000.0001) %MON dynstat_eta_mean             =   4.5733390023416E-07
(PID.TID 0000.0001) %MON dynstat_eta_sd               =   1.7198809165636E-02
(PID.TID 0000.0001) %MON dynstat_eta_del2             =   1.5839350091809E-05
(PID.TID 0000.0001) %MON dynstat_uvel_max             =   2.4943309014009E-02
(PID.TID 0000.0001) %MON dynstat_uvel_min             =  -1.6837709533130E-02
(PID.TID 0000.0001) %MON dynstat_uvel_mean            =   2.7617016316221E-07
(PID.TID 0000.0001) %MON dynstat_uvel_sd              =   6.1606303369899E-03
(PID.TID 0000.0001) %MON dynstat_uvel_del2            =   6.7241925613236E-06
(PID.TID 0000.0001) %MON dynstat_vvel_max             =   8.7283837638607E-02
(PID.TID 0000.0001) %MON dynstat_vvel_min             =  -2.7467331966020E-02
(PID.TID 0000.0001) %MON dynstat_vvel_mean            =   8.8298478950678E-09
(PID.TID 0000.0001) %MON dynstat_vvel_sd              =   1.5904049152267E-02
(PID.TID 0000.0001) %MON dynstat_vvel_del2            =   6.4732198194819E-05
(PID.TID 0000.0001) %MON dynstat_wvel_max             =   1.4261582256431E-08
(PID.TID 0000.0001) %MON dynstat_wvel_min             =  -2.3302221802296E-08
(PID.TID 0000.0001) %MON dynstat_wvel_mean            =  -6.1946795742390E-22
(PID.TID 0000.0001) %MON dynstat_wvel_sd              =   8.0502925715763E-09
(PID.TID 0000.0001) %MON dynstat_wvel_del2            =   4.5306223883405E-12
(PID.TID 0000.0001) %MON dynstat_theta_max            =   2.0000000000000E+01
(PID.TID 0000.0001) %MON dynstat_theta_min            =   2.0000000000000E+01
(PID.TID 0000.0001) %MON dynstat_theta_mean           =   2.0000000000000E+01
(PID.TID 0000.0001) %MON dynstat_theta_sd             =   0.0000000000000E+00
(PID.TID 0000.0001) %MON dynstat_theta_del2           =   0.0000000000000E+00
(PID.TID 0000.0001) %MON dynstat_salt_max             =   3.0000000000000E+01
(PID.TID 0000.0001) %MON dynstat_salt_min             =   3.0000000000000E+01
(PID.TID 0000.0001) %MON dynstat_salt_mean            =   3.0000000000000E+01
(PID.TID 0000.0001) %MON dynstat_salt_sd              =   0.0000000000000E+00
(PID.TID 0000.0001) %MON dynstat_salt_del2            =   0.0000000000000E+00
(PID.TID 0000.0001) %MON trAdv_CFL_u_max              =   1.4964861588449E-03
(PID.TID 0000.0001) %MON trAdv_CFL_v_max              =   5.2368081632699E-03
(PID.TID 0000.0001) %MON trAdv_CFL_w_max              =   3.4206073042529E-09
(PID.TID 0000.0001) %MON advcfl_uvel_max              =   1.4965985408405E-03
(PID.TID 0000.0001) %MON advcfl_vvel_max              =   5.2370302583164E-03
(PID.TID 0000.0001) %MON advcfl_wvel_max              =   1.1185066465102E-08
(PID.TID 0000.0001) %MON advcfl_W_hf_max              =   0.0000000000000E+00
(PID.TID 0000.0001) %MON pe_b_mean                    =   2.9017885522355E-07
(PID.TID 0000.0001) %MON ke_max                       =   3.8059144358512E-03
(PID.TID 0000.0001) %MON ke_mean                      =   1.4302197161769E-04
(PID.TID 0000.0001) %MON ke_vol                       =   7.2000000000000E+15
(PID.TID 0000.0001) %MON vort_r_min                   =  -1.1856139761816E-06
(PID.TID 0000.0001) %MON vort_r_max                   =   2.3321857295136E-06
(PID.TID 0000.0001) %MON vort_a_mean                  =   1.0600000000000E-04
(PID.TID 0000.0001) %MON vort_a_sd                    =   3.5341919224878E-06
(PID.TID 0000.0001) %MON vort_p_mean                  =   1.1130000000000E-04
(PID.TID 0000.0001) %MON vort_p_sd                    =   4.1144559784141E-05
(PID.TID 0000.0001) %MON surfExpan_theta_mean         =  -1.2392160754339E-20
(PID.TID 0000.0001) %MON surfExpan_salt_mean          =  -1.8588083541518E-20
(PID.TID 0000.0001) // =======================================================
(PID.TID 0000.0001) // End MONITOR dynamic field statistics
(PID.TID 0000.0001) // =======================================================
 cg2d: Sum(rhs),rhsMax =  -6.48745720518482E-04  1.40990186369991E-01
 cg2d: Sum(rhs),rhsMax =  -6.48085173828647E-04  1.40996768034597E-01
 cg2d: Sum(rhs),rhsMax =  -6.47417954147436E-04  1.41003334312120E-01
 cg2d: Sum(rhs),rhsMax =  -6.46744082803762E-04  1.41009885232037E-01
 cg2d: Sum(rhs),rhsMax =  -6.46063581260055E-04  1.41016420823815E-01
 cg2d: Sum(rhs),rhsMax =  -6.45376471202655E-04  1.41022941116917E-01
 cg2d: Sum(rhs),rhsMax =  -6.44682774631666E-04  1.41029446140798E-01
 cg2d: Sum(rhs),rhsMax =  -6.43982513808302E-04  1.41035935924907E-01
 cg2d: Sum(rhs),rhsMax =  -6.43275711122858E-04  1.41042410498685E-01
 cg2d: Sum(rhs),rhsMax =  -6.42562389263750E-04  1.41048869891566E-01
 cg2d: Sum(rhs),rhsMax =  -6.41842571119351E-04  1.41055314132979E-01
 cg2d: Sum(rhs),rhsMax =  -6.41116279908040E-04  1.41061743252342E-01
 cg2d: Sum(rhs),rhsMax =  -6.40383539014085E-04  1.41068157279069E-01
 cg2d: Sum(rhs),rhsMax =  -6.39644371999694E-04  1.41074556242567E-01
 cg2d: Sum(rhs),rhsMax =  -6.38898802717099E-04  1.41080940172233E-01
 cg2d: Sum(rhs),rhsMax =  -6.38146855292877E-04  1.41087309097457E-01
 cg2d: Sum(rhs),rhsMax =  -6.37388554015396E-04  1.41093663047625E-01
 cg2d: Sum(rhs),rhsMax =  -6.36623923325827E-04  1.41100002052112E-01
 cg2d: Sum(rhs),rhsMax =  -6.35852988017905E-04  1.41106326140286E-01
 cg2d: Sum(rhs),rhsMax =  -6.35075773129211E-04  1.41112635341507E-01
 cg2d: Sum(rhs),rhsMax =  -6.34292303681527E-04  1.41118929685129E-01
 cg2d: Sum(rhs),rhsMax =  -6.33502605283368E-04  1.41125209200497E-01
 cg2d: Sum(rhs),rhsMax =  -6.32706703420606E-04  1.41131473916949E-01
 cg2d: Sum(rhs),rhsMax =  -6.31904623919472E-04  1.41137723863811E-01
 cg2d: Sum(rhs),rhsMax =  -6.31096392936657E-04  1.41143959070408E-01
 cg2d: Sum(rhs),rhsMax =  -6.30282036655286E-04  1.41150179566052E-01
 cg2d: Sum(rhs),rhsMax =  -6.29461581516505E-04  1.41156385380046E-01
 cg2d: Sum(rhs),rhsMax =  -6.28677914836801E-04  1.41162576692107E-01
 cg2d: Sum(rhs),rhsMax =  -6.27888727229621E-04  1.41168753224745E-01
 cg2d: Sum(rhs),rhsMax =  -6.27094034438275E-04  1.41174915167985E-01
 cg2d: Sum(rhs),rhsMax =  -6.26293868171376E-04  1.41181062544657E-01
 cg2d: Sum(rhs),rhsMax =  -6.25488257861994E-04  1.41187195384809E-01
 cg2d: Sum(rhs),rhsMax =  -6.24677235239828E-04  1.41193313719833E-01
 cg2d: Sum(rhs),rhsMax =  -6.23860831582231E-04  1.41199417579451E-01
 cg2d: Sum(rhs),rhsMax =  -6.23039077904015E-04  1.41205506992376E-01
 cg2d: Sum(rhs),rhsMax =  -6.22212004926637E-04  1.41211581987148E-01
 cg2d: Sum(rhs),rhsMax =  -6.21379643886493E-04  1.41217642592577E-01
 cg2d: Sum(rhs),rhsMax =  -6.20542026096736E-04  1.41223688837800E-01
 cg2d: Sum(rhs),rhsMax =  -6.19699183399474E-04  1.41229720752147E-01
 cg2d: Sum(rhs),rhsMax =  -6.18851147544135E-04  1.41235738364974E-01
 cg2d: Sum(rhs),rhsMax =  -6.17997950629932E-04  1.41241741705569E-01
 cg2d: Sum(rhs),rhsMax =  -6.17139624884270E-04  1.41247730803128E-01
 cg2d: Sum(rhs),rhsMax =  -6.16276202621380E-04  1.41253705686790E-01
 cg2d: Sum(rhs),rhsMax =  -6.15407716315601E-04  1.41259666385669E-01
 cg2d: Sum(rhs),rhsMax =  -6.14534198648460E-04  1.41265612928884E-01
 cg2d: Sum(rhs),rhsMax =  -6.13655682568437E-04  1.41271545345566E-01
 cg2d: Sum(rhs),rhsMax =  -6.12772201148519E-04  1.41277463664849E-01
 cg2d: Sum(rhs),rhsMax =  -6.11883787548268E-04  1.41283367915861E-01
 cg2d: Sum(rhs),rhsMax =  -6.10990475169694E-04  1.41289258127717E-01
 cg2d: Sum(rhs),rhsMax =  -6.10092297522838E-04  1.41295134329516E-01
 cg2d: Sum(rhs),rhsMax =  -6.09189288254193E-04  1.41300996550346E-01
 cg2d: Sum(rhs),rhsMax =  -6.08281481147061E-04  1.41306844819282E-01
 cg2d: Sum(rhs),rhsMax =  -6.07368910322596E-04  1.41312679165392E-01
 cg2d: Sum(rhs),rhsMax =  -6.06451609682051E-04  1.41318499617735E-01
 cg2d: Sum(rhs),rhsMax =  -6.05529613607549E-04  1.41324306205360E-01
 cg2d: Sum(rhs),rhsMax =  -6.04602956537982E-04  1.41330098957306E-01
 cg2d: Sum(rhs),rhsMax =  -6.03671672996474E-04  1.41335877902604E-01
 cg2d: Sum(rhs),rhsMax =  -6.02735797542724E-04  1.41341643070271E-01
 cg2d: Sum(rhs),rhsMax =  -6.01795365143013E-04  1.41347394489314E-01
 cg2d: Sum(rhs),rhsMax =  -6.00850410696728E-04  1.41353132188733E-01
 cg2d: Sum(rhs),rhsMax =  -5.99900969128182E-04  1.41358856197513E-01
 cg2d: Sum(rhs),rhsMax =  -5.98947075736605E-04  1.41364566544631E-01
 cg2d: Sum(rhs),rhsMax =  -5.97988765739921E-04  1.41370263259054E-01
 cg2d: Sum(rhs),rhsMax =  -5.97026074669728E-04  1.41375946369738E-01
 cg2d: Sum(rhs),rhsMax =  -5.96059037953297E-04  1.41381615905627E-01
 cg2d: Sum(rhs),rhsMax =  -5.95087691332080E-04  1.41387271895654E-01
 cg2d: Sum(rhs),rhsMax =  -5.94112070484934E-04  1.41392914368744E-01
 cg2d: Sum(rhs),rhsMax =  -5.93132211331910E-04  1.41398543353810E-01
 cg2d: Sum(rhs),rhsMax =  -5.92148149829909E-04  1.41404158879751E-01
 cg2d: Sum(rhs),rhsMax =  -5.91159921952560E-04  1.41409760975459E-01
 cg2d: Sum(rhs),rhsMax =  -5.90167563972483E-04  1.41415349669812E-01
 cg2d: Sum(rhs),rhsMax =  -5.89171112058956E-04  1.41420924991680E-01
(PID.TID 0000.0001)      cg2d_init_res =   1.65753346835578E-03
(PID.TID 0000.0001)      cg2d_iters(min,last) =      -1      73
(PID.TID 0000.0001)      cg2d_last_res =   8.68880521970522E-08
(PID.TID 0000.0001) // =======================================================
(PID.TID 0000.0001) // Begin MONITOR dynamic field statistics
(PID.TID 0000.0001) // =======================================================
(PID.TID 0000.0001) %MON time_tsnumber                =                  3312
(PID.TID 0000.0001) %MON time_secondsf                =   3.9744000000000E+06
(PID.TID 0000.0001) %MON dynstat_eta_max              =   6.2076529637982E-02
(PID.TID 0000.0001) %MON dynstat_eta_min              =  -1.9006016904066E-02
(PID.TID 0000.0001) %MON dynstat_eta_mean             =   4.1591451033277E-07
(PID.TID 0000.0001) %MON dynstat_eta_sd               =   1.6905122799734E-02
(PID.TID 0000.0001) %MON dynstat_eta_del2             =   1.6055250290282E-05
(PID.TID 0000.0001) %MON dynstat_uvel_max             =   2.5072763526679E-02
(PID.TID 0000.0001) %MON dynstat_uvel_min             =  -1.6586306798911E-02
(PID.TID 0000.0001) %MON dynstat_uvel_mean            =   2.6304170971083E-07
(PID.TID 0000.0001) %MON dynstat_uvel_sd              =   6.1241733893287E-03
(PID.TID 0000.0001) %MON dynstat_uvel_del2            =   6.7051224001150E-06
(PID.TID 0000.0001) %MON dynstat_vvel_max             =   8.7515192461546E-02
(PID.TID 0000.0001) %MON dynstat_vvel_min             =  -2.8211126218807E-02
(PID.TID 0000.0001) %MON dynstat_vvel_mean            =   6.2574488055217E-09
(PID.TID 0000.0001) %MON dynstat_vvel_sd              =   1.5917134728297E-02
(PID.TID 0000.0001) %MON dynstat_vvel_del2            =   6.5359437722435E-05
(PID.TID 0000.0001) %MON dynstat_wvel_max             =   1.4959744492467E-08
(PID.TID 0000.0001) %MON dynstat_wvel_min             =  -2.2839533701772E-08
(PID.TID 0000.0001) %MON dynstat_wvel_mean            =  -3.2066530290346E-21
(PID.TID 0000.0001) %MON dynstat_wvel_sd              =   7.9968617394064E-09
(PID.TID 0000.0001) %MON dynstat_wvel_del2            =   4.4657964743295E-12
(PID.TID 0000.0001) %MON dynstat_theta_max            =   2.0000000000000E+01
(PID.TID 0000.0001) %MON dynstat_theta_min            =   2.0000000000000E+01
(PID.TID 0000.0001) %MON dynstat_theta_mean           =   2.0000000000000E+01
(PID.TID 0000.0001) %MON dynstat_theta_sd             =   0.0000000000000E+00
(PID.TID 0000.0001) %MON dynstat_theta_del2           =   0.0000000000000E+00
(PID.TID 0000.0001) %MON dynstat_salt_max             =   3.0000000000000E+01
(PID.TID 0000.0001) %MON dynstat_salt_min             =   3.0000000000000E+01
(PID.TID 0000.0001) %MON dynstat_salt_mean            =   3.0000000000000E+01
(PID.TID 0000.0001) %MON dynstat_salt_sd              =   0.0000000000000E+00
(PID.TID 0000.0001) %MON dynstat_salt_del2            =   0.0000000000000E+00
(PID.TID 0000.0001) %MON trAdv_CFL_u_max              =   1.5042620267219E-03
(PID.TID 0000.0001) %MON trAdv_CFL_v_max              =   5.2507462459880E-03
(PID.TID 0000.0001) %MON trAdv_CFL_w_max              =   3.5882437803171E-09
(PID.TID 0000.0001) %MON advcfl_uvel_max              =   1.5043658116007E-03
(PID.TID 0000.0001) %MON advcfl_vvel_max              =   5.2509115476927E-03
(PID.TID 0000.0001) %MON advcfl_wvel_max              =   1.0962976176850E-08
(PID.TID 0000.0001) %MON advcfl_W_hf_max              =   0.0000000000000E+00
(PID.TID 0000.0001) %MON pe_b_mean                    =   2.8035329668317E-07
(PID.TID 0000.0001) %MON ke_max                       =   3.8283546580680E-03
(PID.TID 0000.0001) %MON ke_mean                      =   1.4300649988419E-04
(PID.TID 0000.0001) %MON ke_vol                       =   7.2000000000000E+15
(PID.TID 0000.0001) %MON vort_r_min                   =  -1.2098559161081E-06
(PID.TID 0000.0001) %MON vort_r_max                   =   2.3360301499132E-06
(PID.TID 0000.0001) %MON vort_a_mean                  =   1.0600000000000E-04
(PID.TID 0000.0001) %MON vort_a_sd                    =   3.5344240489054E-06
(PID.TID 0000.0001) %MON vort_p_mean                  =   1.1130000000000E-04
(PID.TID 0000.0001) %MON vort_p_sd                    =   4.1145288710418E-05
(PID.TID 0000.0001) %MON surfExpan_theta_mean         =  -6.4134693851988E-20
(PID.TID 0000.0001) %MON surfExpan_salt_mean          =  -9.6202040161191E-20
(PID.TID 0000.0001) // =======================================================
(PID.TID 0000.0001) // End MONITOR dynamic field statistics
(PID.TID 0000.0001) // =======================================================
 cg2d: Sum(rhs),rhsMax =  -5.88170602598696E-04  1.41426486969918E-01
 cg2d: Sum(rhs),rhsMax =  -5.87166071985007E-04  1.41432035633373E-01
 cg2d: Sum(rhs),rhsMax =  -5.86157556769834E-04  1.41437571010877E-01
 cg2d: Sum(rhs),rhsMax =  -5.85145093609177E-04  1.41443093131255E-01
 cg2d: Sum(rhs),rhsMax =  -5.84128719099047E-04  1.41448602023318E-01
 cg2d: Sum(rhs),rhsMax =  -5.83108470098680E-04  1.41454097715865E-01
 cg2d: Sum(rhs),rhsMax =  -5.82084383363269E-04  1.41459580237684E-01
 cg2d: Sum(rhs),rhsMax =  -5.81056495816409E-04  1.41465049617552E-01
 cg2d: Sum(rhs),rhsMax =  -5.80024844479364E-04  1.41470505884233E-01
 cg2d: Sum(rhs),rhsMax =  -5.78989466316212E-04  1.41475949066480E-01
 cg2d: Sum(rhs),rhsMax =  -5.77950398461162E-04  1.41481379193035E-01
 cg2d: Sum(rhs),rhsMax =  -5.76907678082786E-04  1.41486796292626E-01
 cg2d: Sum(rhs),rhsMax =  -5.75861342382267E-04  1.41492200393970E-01
 cg2d: Sum(rhs),rhsMax =  -5.74811428664063E-04  1.41497591525772E-01
 cg2d: Sum(rhs),rhsMax =  -5.73757974216490E-04  1.41502969716725E-01
 cg2d: Sum(rhs),rhsMax =  -5.72701016504287E-04  1.41508334995509E-01
 cg2d: Sum(rhs),rhsMax =  -5.71640592832122E-04  1.41513687390793E-01
 cg2d: Sum(rhs),rhsMax =  -5.70576740728660E-04  1.41519026931234E-01
 cg2d: Sum(rhs),rhsMax =  -5.69509497706787E-04  1.41524353645473E-01
 cg2d: Sum(rhs),rhsMax =  -5.68438901378935E-04  1.41529667562142E-01
 cg2d: Sum(rhs),rhsMax =  -5.67364989198113E-04  1.41534968709861E-01
 cg2d: Sum(rhs),rhsMax =  -5.66287798783008E-04  1.41540257117235E-01
 cg2d: Sum(rhs),rhsMax =  -5.65207367791535E-04  1.41545532812857E-01
 cg2d: Sum(rhs),rhsMax =  -5.64123733950605E-04  1.41550795825307E-01
 cg2d: Sum(rhs),rhsMax =  -5.63036934883943E-04  1.41556046183155E-01
 cg2d: Sum(rhs),rhsMax =  -5.61947008368638E-04  1.41561283914954E-01
 cg2d: Sum(rhs),rhsMax =  -5.60853992072572E-04  1.41566509049247E-01
 cg2d: Sum(rhs),rhsMax =  -5.59757923717587E-04  1.41571721614562E-01
 cg2d: Sum(rhs),rhsMax =  -5.58658841145352E-04  1.41576921639416E-01
 cg2d: Sum(rhs),rhsMax =  -5.57556782150686E-04  1.41582109152313E-01
 cg2d: Sum(rhs),rhsMax =  -5.56451784393363E-04  1.41587284181740E-01
 cg2d: Sum(rhs),rhsMax =  -5.55343885769990E-04  1.41592446756175E-01
 cg2d: Sum(rhs),rhsMax =  -5.54233124008541E-04  1.41597596904082E-01
 cg2d: Sum(rhs),rhsMax =  -5.53119536831826E-04  1.41602734653909E-01
 cg2d: Sum(rhs),rhsMax =  -5.52003162153129E-04  1.41607860034094E-01
 cg2d: Sum(rhs),rhsMax =  -5.50884037752991E-04  1.41612973073059E-01
 cg2d: Sum(rhs),rhsMax =  -5.49762201224726E-04  1.41618073799213E-01
 cg2d: Sum(rhs),rhsMax =  -5.48637690501100E-04  1.41623162240953E-01
 cg2d: Sum(rhs),rhsMax =  -5.47510543315746E-04  1.41628238426662E-01
 cg2d: Sum(rhs),rhsMax =  -5.46380797329073E-04  1.41633302384705E-01
 cg2d: Sum(rhs),rhsMax =  -5.45248490438408E-04  1.41638354143438E-01
 cg2d: Sum(rhs),rhsMax =  -5.44187954038489E-04  1.41643393813201E-01
 cg2d: Sum(rhs),rhsMax =  -5.43125421226149E-04  1.41648421267539E-01
 cg2d: Sum(rhs),rhsMax =  -5.42060989259799E-04  1.41653436594700E-01
 cg2d: Sum(rhs),rhsMax =  -5.40994688771081E-04  1.41658439835307E-01
 cg2d: Sum(rhs),rhsMax =  -5.39926562548562E-04  1.41663431017105E-01
 cg2d: Sum(rhs),rhsMax =  -5.38856649730673E-04  1.41668410169802E-01
 cg2d: Sum(rhs),rhsMax =  -5.37784985841841E-04  1.41673377322207E-01
 cg2d: Sum(rhs),rhsMax =  -5.36711605759977E-04  1.41678332502233E-01
 cg2d: Sum(rhs),rhsMax =  -5.35636545732674E-04  1.41683275737596E-01
 cg2d: Sum(rhs),rhsMax =  -5.34559842991248E-04  1.41688207056208E-01
 cg2d: Sum(rhs),rhsMax =  -5.33481535797594E-04  1.41693126486220E-01
 cg2d: Sum(rhs),rhsMax =  -5.32401662313936E-04  1.41698034055912E-01
 cg2d: Sum(rhs),rhsMax =  -5.31320260330643E-04  1.41702929793569E-01
 cg2d: Sum(rhs),rhsMax =  -5.30237367160883E-04  1.41707813727417E-01
 cg2d: Sum(rhs),rhsMax =  -5.29153019923997E-04  1.41712685885609E-01
 cg2d: Sum(rhs),rhsMax =  -5.28067255449475E-04  1.41717546296250E-01
 cg2d: Sum(rhs),rhsMax =  -5.26980110615148E-04  1.41722394987421E-01
 cg2d: Sum(rhs),rhsMax =  -5.25891622368338E-04  1.41727231987198E-01
 cg2d: Sum(rhs),rhsMax =  -5.24801827464521E-04  1.41732057323655E-01
 cg2d: Sum(rhs),rhsMax =  -5.23710762772646E-04  1.41736871024863E-01
 cg2d: Sum(rhs),rhsMax =  -5.22618464884553E-04  1.41741673118882E-01
 cg2d: Sum(rhs),rhsMax =  -5.21524970445385E-04  1.41746463633749E-01
 cg2d: Sum(rhs),rhsMax =  -5.20430315743709E-04  1.41751242597486E-01
 cg2d: Sum(rhs),rhsMax =  -5.19334537085693E-04  1.41756010038098E-01
 cg2d: Sum(rhs),rhsMax =  -5.18237670597203E-04  1.41760765983569E-01
 cg2d: Sum(rhs),rhsMax =  -5.17139752494162E-04  1.41765510461874E-01
 cg2d: Sum(rhs),rhsMax =  -5.16040818590534E-04  1.41770243500967E-01
 cg2d: Sum(rhs),rhsMax =  -5.14940904996385E-04  1.41774965128793E-01
 cg2d: Sum(rhs),rhsMax =  -5.13840047213263E-04  1.41779675373280E-01
 cg2d: Sum(rhs),rhsMax =  -5.12738280955281E-04  1.41784374262336E-01
 cg2d: Sum(rhs),rhsMax =  -5.11635641756953E-04  1.41789061823860E-01
(PID.TID 0000.0001)      cg2d_init_res =   1.63539205022209E-03
(PID.TID 0000.0001)      cg2d_iters(min,last) =      -1      75
(PID.TID 0000.0001)      cg2d_last_res =   8.78687848059929E-08
(PID.TID 0000.0001) // =======================================================
(PID.TID 0000.0001) // Begin MONITOR dynamic field statistics
(PID.TID 0000.0001) // =======================================================
(PID.TID 0000.0001) %MON time_tsnumber                =                  3384
(PID.TID 0000.0001) %MON time_secondsf                =   4.0608000000000E+06
(PID.TID 0000.0001) %MON dynstat_eta_max              =   6.1566967766878E-02
(PID.TID 0000.0001) %MON dynstat_eta_min              =  -1.9095879501074E-02
(PID.TID 0000.0001) %MON dynstat_eta_mean             =   3.6201269670110E-07
(PID.TID 0000.0001) %MON dynstat_eta_sd               =   1.6639949327139E-02
(PID.TID 0000.0001) %MON dynstat_eta_del2             =   1.6257770349647E-05
(PID.TID 0000.0001) %MON dynstat_uvel_max             =   2.5192954907350E-02
(PID.TID 0000.0001) %MON dynstat_uvel_min             =  -1.6335089962875E-02
(PID.TID 0000.0001) %MON dynstat_uvel_mean            =   2.4609506132245E-07
(PID.TID 0000.0001) %MON dynstat_uvel_sd              =   6.1001892121803E-03
(PID.TID 0000.0001) %MON dynstat_uvel_del2            =   6.6977338897632E-06
(PID.TID 0000.0001) %MON dynstat_vvel_max             =   8.7702770850074E-02
(PID.TID 0000.0001) %MON dynstat_vvel_min             =  -2.8848044142486E-02
(PID.TID 0000.0001) %MON dynstat_vvel_mean            =   3.7289150420302E-09
(PID.TID 0000.0001) %MON dynstat_vvel_sd              =   1.5923075176632E-02
(PID.TID 0000.0001) %MON dynstat_vvel_del2            =   6.5938685943720E-05
(PID.TID 0000.0001) %MON dynstat_wvel_max             =   1.5666782176813E-08
(PID.TID 0000.0001) %MON dynstat_wvel_min             =  -2.2240816012491E-08
(PID.TID 0000.0001) %MON dynstat_wvel_mean            =  -2.6813662164689E-21
(PID.TID 0000.0001) %MON dynstat_wvel_sd              =   7.9399346450863E-09
(PID.TID 0000.0001) %MON dynstat_wvel_del2            =   4.4073527133091E-12
(PID.TID 0000.0001) %MON dynstat_theta_max            =   2.0000000000000E+01
(PID.TID 0000.0001) %MON dynstat_theta_min            =   2.0000000000000E+01
(PID.TID 0000.0001) %MON dynstat_theta_mean           =   2.0000000000000E+01
(PID.TID 0000.0001) %MON dynstat_theta_sd             =   0.0000000000000E+00
(PID.TID 0000.0001) %MON dynstat_theta_del2           =   0.0000000000000E+00
(PID.TID 0000.0001) %MON dynstat_salt_max             =   3.0000000000000E+01
(PID.TID 0000.0001) %MON dynstat_salt_min             =   3.0000000000000E+01
(PID.TID 0000.0001) %MON dynstat_salt_mean            =   3.0000000000000E+01
(PID.TID 0000.0001) %MON dynstat_salt_sd              =   0.0000000000000E+00
(PID.TID 0000.0001) %MON dynstat_salt_del2            =   0.0000000000000E+00
(PID.TID 0000.0001) %MON trAdv_CFL_u_max              =   1.5114803798713E-03
(PID.TID 0000.0001) %MON trAdv_CFL_v_max              =   5.2620067450180E-03
(PID.TID 0000.0001) %MON trAdv_CFL_w_max              =   3.7578014042301E-09
(PID.TID 0000.0001) %MON advcfl_uvel_max              =   1.5115772944410E-03
(PID.TID 0000.0001) %MON advcfl_vvel_max              =   5.2621662510044E-03
(PID.TID 0000.0001) %MON advcfl_wvel_max              =   1.0675591685995E-08
(PID.TID 0000.0001) %MON advcfl_W_hf_max              =   0.0000000000000E+00
(PID.TID 0000.0001) %MON pe_b_mean                    =   2.7162704337974E-07
(PID.TID 0000.0001) %MON ke_max                       =   3.8452529152967E-03
(PID.TID 0000.0001) %MON ke_mean                      =   1.4295534385311E-04
(PID.TID 0000.0001) %MON ke_vol                       =   7.2000000000000E+15
(PID.TID 0000.0001) %MON vort_r_min                   =  -1.2329531681382E-06
(PID.TID 0000.0001) %MON vort_r_max                   =   2.3390642973690E-06
(PID.TID 0000.0001) %MON vort_a_mean                  =   1.0600000000000E-04
(PID.TID 0000.0001) %MON vort_a_sd                    =   3.5346388392807E-06
(PID.TID 0000.0001) %MON vort_p_mean                  =   1.1130000000000E-04
(PID.TID 0000.0001) %MON vort_p_sd                    =   4.1145971508643E-05
(PID.TID 0000.0001) %MON surfExpan_theta_mean         =  -5.3632081491944E-20
(PID.TID 0000.0001) %MON surfExpan_salt_mean          =  -8.0447806441144E-20
(PID.TID 0000.0001) // =======================================================
(PID.TID 0000.0001) // End MONITOR dynamic field statistics
(PID.TID 0000.0001) // =======================================================
 cg2d: Sum(rhs),rhsMax =  -5.10618736287975E-04  1.41793738059438E-01
 cg2d: Sum(rhs),rhsMax =  -5.09601519751550E-04  1.41798403034057E-01
 cg2d: Sum(rhs),rhsMax =  -5.08583982739039E-04  1.41803056775396E-01
 cg2d: Sum(rhs),rhsMax =  -5.07566186735231E-04  1.41807699300903E-01
 cg2d: Sum(rhs),rhsMax =  -5.06548171076572E-04  1.41812330636951E-01
 cg2d: Sum(rhs),rhsMax =  -5.05529969590030E-04  1.41816950812553E-01
 cg2d: Sum(rhs),rhsMax =  -5.04511612256561E-04  1.41821559856071E-01
 cg2d: Sum(rhs),rhsMax =  -5.03493128756419E-04  1.41826157795082E-01
 cg2d: Sum(rhs),rhsMax =  -5.02474549827918E-04  1.41830744656958E-01
 cg2d: Sum(rhs),rhsMax =  -5.01455907577223E-04  1.41835320469216E-01
 cg2d: Sum(rhs),rhsMax =  -5.00437235070364E-04  1.41839885259550E-01
 cg2d: Sum(rhs),rhsMax =  -4.99418564968155E-04  1.41844439055734E-01
 cg2d: Sum(rhs),rhsMax =  -4.98399929528725E-04  1.41848981885537E-01
 cg2d: Sum(rhs),rhsMax =  -4.97381360502480E-04  1.41853513776673E-01
 cg2d: Sum(rhs),rhsMax =  -4.96362889135158E-04  1.41858034756799E-01
 cg2d: Sum(rhs),rhsMax =  -4.95344546517734E-04  1.41862544853537E-01
 cg2d: Sum(rhs),rhsMax =  -4.94326363543696E-04  1.41867044094484E-01
 cg2d: Sum(rhs),rhsMax =  -4.93308371224688E-04  1.41871532507229E-01
 cg2d: Sum(rhs),rhsMax =  -4.92290600195790E-04  1.41876010119353E-01
 cg2d: Sum(rhs),rhsMax =  -4.91273081120511E-04  1.41880476958430E-01
 cg2d: Sum(rhs),rhsMax =  -4.90255844451216E-04  1.41884933052015E-01
 cg2d: Sum(rhs),rhsMax =  -4.89238920351463E-04  1.41889378427645E-01
 cg2d: Sum(rhs),rhsMax =  -4.88222338820296E-04  1.41893813112839E-01
 cg2d: Sum(rhs),rhsMax =  -4.87206129599563E-04  1.41898237135095E-01
 cg2d: Sum(rhs),rhsMax =  -4.86190322374892E-04  1.41902650521893E-01
 cg2d: Sum(rhs),rhsMax =  -4.85174946540544E-04  1.41907053300697E-01
 cg2d: Sum(rhs),rhsMax =  -4.84160031396416E-04  1.41911445498955E-01
 cg2d: Sum(rhs),rhsMax =  -4.83145606027116E-04  1.41915827144095E-01
 cg2d: Sum(rhs),rhsMax =  -4.82131699269226E-04  1.41920198263531E-01
 cg2d: Sum(rhs),rhsMax =  -4.81118339924811E-04  1.41924558884659E-01
 cg2d: Sum(rhs),rhsMax =  -4.80105556350463E-04  1.41928909034854E-01
 cg2d: Sum(rhs),rhsMax =  -4.79093377019541E-04  1.41933248741478E-01
 cg2d: Sum(rhs),rhsMax =  -4.78081829938887E-04  1.41937578031872E-01
 cg2d: Sum(rhs),rhsMax =  -4.77070943164635E-04  1.41941896933361E-01
 cg2d: Sum(rhs),rhsMax =  -4.76060744293645E-04  1.41946205473249E-01
 cg2d: Sum(rhs),rhsMax =  -4.75051260990966E-04  1.41950503678825E-01
 cg2d: Sum(rhs),rhsMax =  -4.74042520596910E-04  1.41954791577361E-01
 cg2d: Sum(rhs),rhsMax =  -4.73034550251297E-04  1.41959069196107E-01
 cg2d: Sum(rhs),rhsMax =  -4.72027376975107E-04  1.41963336562299E-01
 cg2d: Sum(rhs),rhsMax =  -4.71021027608082E-04  1.41967593703152E-01
 cg2d: Sum(rhs),rhsMax =  -4.70015528688550E-04  1.41971840645865E-01
 cg2d: Sum(rhs),rhsMax =  -4.69010906561007E-04  1.41976077417615E-01
 cg2d: Sum(rhs),rhsMax =  -4.68007187539602E-04  1.41980304045566E-01
 cg2d: Sum(rhs),rhsMax =  -4.67004397664124E-04  1.41984520556859E-01
 cg2d: Sum(rhs),rhsMax =  -4.66002562690036E-04  1.41988726978620E-01
 cg2d: Sum(rhs),rhsMax =  -4.65001708301451E-04  1.41992923337952E-01
 cg2d: Sum(rhs),rhsMax =  -4.64001859967250E-04  1.41997109661946E-01
 cg2d: Sum(rhs),rhsMax =  -4.63003042839401E-04  1.42001285977668E-01
 cg2d: Sum(rhs),rhsMax =  -4.62221577533546E-04  1.42005452154416E-01
 cg2d: Sum(rhs),rhsMax =  -4.61563480352244E-04  1.42009608694120E-01
 cg2d: Sum(rhs),rhsMax =  -4.60906928959566E-04  1.42013755119516E-01
 cg2d: Sum(rhs),rhsMax =  -4.60252039279668E-04  1.42017891657581E-01
 cg2d: Sum(rhs),rhsMax =  -4.59598790378599E-04  1.42022018323564E-01
 cg2d: Sum(rhs),rhsMax =  -4.58947189217204E-04  1.42026135142059E-01
 cg2d: Sum(rhs),rhsMax =  -4.58297243416859E-04  1.42030242140876E-01
 cg2d: Sum(rhs),rhsMax =  -4.57648961990449E-04  1.42034339347455E-01
 cg2d: Sum(rhs),rhsMax =  -4.57002355284308E-04  1.42038426788555E-01
 cg2d: Sum(rhs),rhsMax =  -4.56357434433040E-04  1.42042504490891E-01
 cg2d: Sum(rhs),rhsMax =  -4.55714210133139E-04  1.42046572481360E-01
 cg2d: Sum(rhs),rhsMax =  -4.55072692472401E-04  1.42050630786915E-01
 cg2d: Sum(rhs),rhsMax =  -4.54432890894688E-04  1.42054679434431E-01
 cg2d: Sum(rhs),rhsMax =  -4.53794814629898E-04  1.42058718450705E-01
 cg2d: Sum(rhs),rhsMax =  -4.53158472579861E-04  1.42062747862488E-01
 cg2d: Sum(rhs),rhsMax =  -4.52523873650660E-04  1.42066767696521E-01
 cg2d: Sum(rhs),rhsMax =  -4.51891026662307E-04  1.42070777979538E-01
 cg2d: Sum(rhs),rhsMax =  -4.51259940420753E-04  1.42074778738267E-01
 cg2d: Sum(rhs),rhsMax =  -4.50630623414227E-04  1.42078769999419E-01
 cg2d: Sum(rhs),rhsMax =  -4.50003084066336E-04  1.42082751789683E-01
 cg2d: Sum(rhs),rhsMax =  -4.49377330497834E-04  1.42086724135727E-01
 cg2d: Sum(rhs),rhsMax =  -4.48753370688279E-04  1.42090687064196E-01
 cg2d: Sum(rhs),rhsMax =  -4.48131212521954E-04  1.42094640601717E-01
 cg2d: Sum(rhs),rhsMax =  -4.47510863702526E-04  1.42098584774890E-01
(PID.TID 0000.0001)      cg2d_init_res =   1.61627661302123E-03
(PID.TID 0000.0001)      cg2d_iters(min,last) =      -1      78
(PID.TID 0000.0001)      cg2d_last_res =   9.77398698173548E-08
(PID.TID 0000.0001) // =======================================================
(PID.TID 0000.0001) // Begin MONITOR dynamic field statistics
(PID.TID 0000.0001) // =======================================================
(PID.TID 0000.0001) %MON time_tsnumber                =                  3456
(PID.TID 0000.0001) %MON time_secondsf                =   4.1472000000000E+06
(PID.TID 0000.0001) %MON dynstat_eta_max              =   6.1020945526071E-02
(PID.TID 0000.0001) %MON dynstat_eta_min              =  -1.9227088493751E-02
(PID.TID 0000.0001) %MON dynstat_eta_mean             =   3.1752263162415E-07
(PID.TID 0000.0001) %MON dynstat_eta_sd               =   1.6407623401645E-02
(PID.TID 0000.0001) %MON dynstat_eta_del2             =   1.6447348272797E-05
(PID.TID 0000.0001) %MON dynstat_uvel_max             =   2.5305933183378E-02
(PID.TID 0000.0001) %MON dynstat_uvel_min             =  -1.6095878556966E-02
(PID.TID 0000.0001) %MON dynstat_uvel_mean            =   2.2564951416956E-07
(PID.TID 0000.0001) %MON dynstat_uvel_sd              =   6.0890211041648E-03
(PID.TID 0000.0001) %MON dynstat_uvel_del2            =   6.7019674999473E-06
(PID.TID 0000.0001) %MON dynstat_vvel_max             =   8.7866718846784E-02
(PID.TID 0000.0001) %MON dynstat_vvel_min             =  -2.9395514533906E-02
(PID.TID 0000.0001) %MON dynstat_vvel_mean            =   1.2739492549914E-09
(PID.TID 0000.0001) %MON dynstat_vvel_sd              =   1.5922962418184E-02
(PID.TID 0000.0001) %MON dynstat_vvel_del2            =   6.6473736891966E-05
(PID.TID 0000.0001) %MON dynstat_wvel_max             =   1.6356420109587E-08
(PID.TID 0000.0001) %MON dynstat_wvel_min             =  -2.1644757071044E-08
(PID.TID 0000.0001) %MON dynstat_wvel_mean            =   2.5081185286682E-21
(PID.TID 0000.0001) %MON dynstat_wvel_sd              =   7.8811072852881E-09
(PID.TID 0000.0001) %MON dynstat_wvel_del2            =   4.3501655958857E-12
(PID.TID 0000.0001) %MON dynstat_theta_max            =   2.0000000000000E+01
(PID.TID 0000.0001) %MON dynstat_theta_min            =   2.0000000000000E+01
(PID.TID 0000.0001) %MON dynstat_theta_mean           =   2.0000000000000E+01
(PID.TID 0000.0001) %MON dynstat_theta_sd             =   0.0000000000000E+00
(PID.TID 0000.0001) %MON dynstat_theta_del2           =   0.0000000000000E+00
(PID.TID 0000.0001) %MON dynstat_salt_max             =   3.0000000000000E+01
(PID.TID 0000.0001) %MON dynstat_salt_min             =   3.0000000000000E+01
(PID.TID 0000.0001) %MON dynstat_salt_mean            =   3.0000000000000E+01
(PID.TID 0000.0001) %MON dynstat_salt_sd              =   0.0000000000000E+00
(PID.TID 0000.0001) %MON dynstat_salt_del2            =   0.0000000000000E+00
(PID.TID 0000.0001) %MON trAdv_CFL_u_max              =   1.5182642595104E-03
(PID.TID 0000.0001) %MON trAdv_CFL_v_max              =   5.2718878023695E-03
(PID.TID 0000.0001) %MON trAdv_CFL_w_max              =   3.9235327625734E-09
(PID.TID 0000.0001) %MON advcfl_uvel_max              =   1.5183559910027E-03
(PID.TID 0000.0001) %MON advcfl_vvel_max              =   5.2720031308071E-03
(PID.TID 0000.0001) %MON advcfl_wvel_max              =   1.0389483394101E-08
(PID.TID 0000.0001) %MON advcfl_W_hf_max              =   0.0000000000000E+00
(PID.TID 0000.0001) %MON pe_b_mean                    =   2.6409511378101E-07
(PID.TID 0000.0001) %MON ke_max                       =   3.8572060728964E-03
(PID.TID 0000.0001) %MON ke_mean                      =   1.4288664752916E-04
(PID.TID 0000.0001) %MON ke_vol                       =   7.2000000000000E+15
(PID.TID 0000.0001) %MON vort_r_min                   =  -1.2548999101893E-06
(PID.TID 0000.0001) %MON vort_r_max                   =   2.3414681767861E-06
(PID.TID 0000.0001) %MON vort_a_mean                  =   1.0600000000000E-04
(PID.TID 0000.0001) %MON vort_a_sd                    =   3.5348377707375E-06
(PID.TID 0000.0001) %MON vort_p_mean                  =   1.1130000000000E-04
(PID.TID 0000.0001) %MON vort_p_sd                    =   4.1146610706981E-05
(PID.TID 0000.0001) %MON surfExpan_theta_mean         =   5.0164315911082E-20
(PID.TID 0000.0001) %MON surfExpan_salt_mean          =   7.5246473249832E-20
(PID.TID 0000.0001) // =======================================================
(PID.TID 0000.0001) // End MONITOR dynamic field statistics
(PID.TID 0000.0001) // =======================================================
 cg2d: Sum(rhs),rhsMax =  -4.46892331709480E-04  1.42102519610301E-01
 cg2d: Sum(rhs),rhsMax =  -4.46275623820623E-04  1.42106445134512E-01
 cg2d: Sum(rhs),rhsMax =  -4.45660747466686E-04  1.42110361374069E-01
 cg2d: Sum(rhs),rhsMax =  -4.45047709520899E-04  1.42114268355495E-01
 cg2d: Sum(rhs),rhsMax =  -4.44436516885954E-04  1.42118166105294E-01
 cg2d: Sum(rhs),rhsMax =  -4.43827176339753E-04  1.42122054649951E-01
 cg2d: Sum(rhs),rhsMax =  -4.43219694531272E-04  1.42125934015928E-01
 cg2d: Sum(rhs),rhsMax =  -4.42614077875556E-04  1.42129804229669E-01
 cg2d: Sum(rhs),rhsMax =  -4.42010332701423E-04  1.42133665317596E-01
 cg2d: Sum(rhs),rhsMax =  -4.41408465034802E-04  1.42137517306109E-01
 cg2d: Sum(rhs),rhsMax =  -4.40808480989364E-04  1.42141360221592E-01
 cg2d: Sum(rhs),rhsMax =  -4.40210386410725E-04  1.42145194090404E-01
 cg2d: Sum(rhs),rhsMax =  -4.39614186978776E-04  1.42149018938884E-01
 cg2d: Sum(rhs),rhsMax =  -4.39019888286313E-04  1.42152834793349E-01
 cg2d: Sum(rhs),rhsMax =  -4.38427495722473E-04  1.42156641680101E-01
 cg2d: Sum(rhs),rhsMax =  -4.37837014697716E-04  1.42160439625413E-01
 cg2d: Sum(rhs),rhsMax =  -4.37248450308653E-04  1.42164228655543E-01
 cg2d: Sum(rhs),rhsMax =  -4.36661807570921E-04  1.42168008796726E-01
 cg2d: Sum(rhs),rhsMax =  -4.36077091370232E-04  1.42171780075175E-01
 cg2d: Sum(rhs),rhsMax =  -4.35494306515541E-04  1.42175542517084E-01
 cg2d: Sum(rhs),rhsMax =  -4.34913457551350E-04  1.42179296148624E-01
 cg2d: Sum(rhs),rhsMax =  -4.34334549015505E-04  1.42183040995944E-01
 cg2d: Sum(rhs),rhsMax =  -4.33757585284273E-04  1.42186777085176E-01
 cg2d: Sum(rhs),rhsMax =  -4.33182570550266E-04  1.42190504442426E-01
 cg2d: Sum(rhs),rhsMax =  -4.32609508970675E-04  1.42194223093779E-01
 cg2d: Sum(rhs),rhsMax =  -4.32038404520055E-04  1.42197933065302E-01
 cg2d: Sum(rhs),rhsMax =  -4.31469261108495E-04  1.42201634383037E-01
 cg2d: Sum(rhs),rhsMax =  -4.30902082446475E-04  1.42205327073006E-01
 cg2d: Sum(rhs),rhsMax =  -4.30336872065232E-04  1.42209011161210E-01
 cg2d: Sum(rhs),rhsMax =  -4.29874314193549E-04  1.42212686201710E-01
 cg2d: Sum(rhs),rhsMax =  -4.29413672236597E-04  1.42216353149835E-01
 cg2d: Sum(rhs),rhsMax =  -4.28954835703368E-04  1.42220011585601E-01
 cg2d: Sum(rhs),rhsMax =  -4.28497826495721E-04  1.42223661524908E-01
 cg2d: Sum(rhs),rhsMax =  -4.28042636286210E-04  1.42227302992249E-01
 cg2d: Sum(rhs),rhsMax =  -4.27589264800411E-04  1.42230936012708E-01
 cg2d: Sum(rhs),rhsMax =  -4.27137715448341E-04  1.42234560612300E-01
 cg2d: Sum(rhs),rhsMax =  -4.26687992158303E-04  1.42238176817097E-01
 cg2d: Sum(rhs),rhsMax =  -4.26240097466763E-04  1.42241784653081E-01
 cg2d: Sum(rhs),rhsMax =  -4.25794032014779E-04  1.42245384146170E-01
 cg2d: Sum(rhs),rhsMax =  -4.25349795156746E-04  1.42248975322184E-01
 cg2d: Sum(rhs),rhsMax =  -4.24907386047604E-04  1.42252558206840E-01
 cg2d: Sum(rhs),rhsMax =  -4.24466804089404E-04  1.42256132825791E-01
 cg2d: Sum(rhs),rhsMax =  -4.24028048941484E-04  1.42259699204677E-01
 cg2d: Sum(rhs),rhsMax =  -4.23591120577929E-04  1.42263257369151E-01
 cg2d: Sum(rhs),rhsMax =  -4.23156018920435E-04  1.42266807344868E-01
 cg2d: Sum(rhs),rhsMax =  -4.22722743815935E-04  1.42270349157470E-01
 cg2d: Sum(rhs),rhsMax =  -4.22291294926939E-04  1.42273882832572E-01
 cg2d: Sum(rhs),rhsMax =  -4.21861671518047E-04  1.42277408395756E-01
 cg2d: Sum(rhs),rhsMax =  -4.21433873088664E-04  1.42280925872576E-01
 cg2d: Sum(rhs),rhsMax =  -4.21007898691365E-04  1.42284435288561E-01
 cg2d: Sum(rhs),rhsMax =  -4.20583747813587E-04  1.42287936669218E-01
 cg2d: Sum(rhs),rhsMax =  -4.20161419496923E-04  1.42291430040035E-01
 cg2d: Sum(rhs),rhsMax =  -4.19740912876230E-04  1.42294915426474E-01
 cg2d: Sum(rhs),rhsMax =  -4.19322227152700E-04  1.42298392853982E-01
 cg2d: Sum(rhs),rhsMax =  -4.18905361031161E-04  1.42301862347975E-01
 cg2d: Sum(rhs),rhsMax =  -4.18490313562415E-04  1.42305323933850E-01
 cg2d: Sum(rhs),rhsMax =  -4.18077083532168E-04  1.42308777636981E-01
 cg2d: Sum(rhs),rhsMax =  -4.17665669630266E-04  1.42312223482715E-01
 cg2d: Sum(rhs),rhsMax =  -4.17256070630569E-04  1.42315661496379E-01
 cg2d: Sum(rhs),rhsMax =  -4.16848285155559E-04  1.42319091703275E-01
 cg2d: Sum(rhs),rhsMax =  -4.16442311714526E-04  1.42322514128683E-01
 cg2d: Sum(rhs),rhsMax =  -4.16038148905542E-04  1.42325928797860E-01
 cg2d: Sum(rhs),rhsMax =  -4.15635795060450E-04  1.42329335736037E-01
 cg2d: Sum(rhs),rhsMax =  -4.15235248592598E-04  1.42332734968423E-01
 cg2d: Sum(rhs),rhsMax =  -4.14836507767065E-04  1.42336126520206E-01
 cg2d: Sum(rhs),rhsMax =  -4.14439571012797E-04  1.42339510416545E-01
 cg2d: Sum(rhs),rhsMax =  -4.14044436277596E-04  1.42342886682580E-01
 cg2d: Sum(rhs),rhsMax =  -4.13651101879038E-04  1.42346255343424E-01
 cg2d: Sum(rhs),rhsMax =  -4.13259565841382E-04  1.42349616424171E-01
 cg2d: Sum(rhs),rhsMax =  -4.12869826222127E-04  1.42352969949884E-01
 cg2d: Sum(rhs),rhsMax =  -4.12481880963891E-04  1.42356315945608E-01
 cg2d: Sum(rhs),rhsMax =  -4.12095727974910E-04  1.42359654436363E-01
(PID.TID 0000.0001)      cg2d_init_res =   1.59960876823526E-03
(PID.TID 0000.0001)      cg2d_iters(min,last) =      -1      79
(PID.TID 0000.0001)      cg2d_last_res =   9.32717298401198E-08
(PID.TID 0000.0001) // =======================================================
(PID.TID 0000.0001) // Begin MONITOR dynamic field statistics
(PID.TID 0000.0001) // =======================================================
(PID.TID 0000.0001) %MON time_tsnumber                =                  3528
(PID.TID 0000.0001) %MON time_secondsf                =   4.2336000000000E+06
(PID.TID 0000.0001) %MON dynstat_eta_max              =   6.0423819650202E-02
(PID.TID 0000.0001) %MON dynstat_eta_min              =  -1.9396526470827E-02
(PID.TID 0000.0001) %MON dynstat_eta_mean             =   2.9306229542103E-07
(PID.TID 0000.0001) %MON dynstat_eta_sd               =   1.6211884926259E-02
(PID.TID 0000.0001) %MON dynstat_eta_del2             =   1.6624472158481E-05
(PID.TID 0000.0001) %MON dynstat_uvel_max             =   2.5413689265909E-02
(PID.TID 0000.0001) %MON dynstat_uvel_min             =  -1.5858983321468E-02
(PID.TID 0000.0001) %MON dynstat_uvel_mean            =   2.0207089524131E-07
(PID.TID 0000.0001) %MON dynstat_uvel_sd              =   6.0907601300801E-03
(PID.TID 0000.0001) %MON dynstat_uvel_del2            =   6.7176966093604E-06
(PID.TID 0000.0001) %MON dynstat_vvel_max             =   8.7981189991250E-02
(PID.TID 0000.0001) %MON dynstat_vvel_min             =  -2.9842841971062E-02
(PID.TID 0000.0001) %MON dynstat_vvel_mean            =  -1.0798022046272E-09
(PID.TID 0000.0001) %MON dynstat_vvel_sd              =   1.5917849547140E-02
(PID.TID 0000.0001) %MON dynstat_vvel_del2            =   6.6968487958753E-05
(PID.TID 0000.0001) %MON dynstat_wvel_max             =   1.7031189961999E-08
(PID.TID 0000.0001) %MON dynstat_wvel_min             =  -2.0855272372719E-08
(PID.TID 0000.0001) %MON dynstat_wvel_mean            =   2.5707145646771E-21
(PID.TID 0000.0001) %MON dynstat_wvel_sd              =   7.8220289629963E-09
(PID.TID 0000.0001) %MON dynstat_wvel_del2            =   4.3002947982556E-12
(PID.TID 0000.0001) %MON dynstat_theta_max            =   2.0000000000000E+01
(PID.TID 0000.0001) %MON dynstat_theta_min            =   2.0000000000000E+01
(PID.TID 0000.0001) %MON dynstat_theta_mean           =   2.0000000000000E+01
(PID.TID 0000.0001) %MON dynstat_theta_sd             =   0.0000000000000E+00
(PID.TID 0000.0001) %MON dynstat_theta_del2           =   0.0000000000000E+00
(PID.TID 0000.0001) %MON dynstat_salt_max             =   3.0000000000000E+01
(PID.TID 0000.0001) %MON dynstat_salt_min             =   3.0000000000000E+01
(PID.TID 0000.0001) %MON dynstat_salt_mean            =   3.0000000000000E+01
(PID.TID 0000.0001) %MON dynstat_salt_sd              =   0.0000000000000E+00
(PID.TID 0000.0001) %MON dynstat_salt_del2            =   0.0000000000000E+00
(PID.TID 0000.0001) %MON trAdv_CFL_u_max              =   1.5247331792030E-03
(PID.TID 0000.0001) %MON trAdv_CFL_v_max              =   5.2787944551244E-03
(PID.TID 0000.0001) %MON trAdv_CFL_w_max              =   4.0855030157079E-09
(PID.TID 0000.0001) %MON advcfl_uvel_max              =   1.5248213559546E-03
(PID.TID 0000.0001) %MON advcfl_vvel_max              =   5.2788713994750E-03
(PID.TID 0000.0001) %MON advcfl_wvel_max              =   1.0010530738905E-08
(PID.TID 0000.0001) %MON advcfl_W_hf_max              =   0.0000000000000E+00
(PID.TID 0000.0001) %MON pe_b_mean                    =   2.5783153390213E-07
(PID.TID 0000.0001) %MON ke_max                       =   3.8648196108284E-03
(PID.TID 0000.0001) %MON ke_mean                      =   1.4281701916080E-04
(PID.TID 0000.0001) %MON ke_vol                       =   7.2000000000000E+15
(PID.TID 0000.0001) %MON vort_r_min                   =  -1.2756966804473E-06
(PID.TID 0000.0001) %MON vort_r_max                   =   2.3434110263779E-06
(PID.TID 0000.0001) %MON vort_a_mean                  =   1.0600000000000E-04
(PID.TID 0000.0001) %MON vort_a_sd                    =   3.5350223783298E-06
(PID.TID 0000.0001) %MON vort_p_mean                  =   1.1130000000000E-04
(PID.TID 0000.0001) %MON vort_p_sd                    =   4.1147208582066E-05
(PID.TID 0000.0001) %MON surfExpan_theta_mean         =   5.1405080192524E-20
(PID.TID 0000.0001) %MON surfExpan_salt_mean          =   7.7108726811067E-20
(PID.TID 0000.0001) // =======================================================
(PID.TID 0000.0001) // End MONITOR dynamic field statistics
(PID.TID 0000.0001) // =======================================================
 cg2d: Sum(rhs),rhsMax =  -4.11711365141579E-04  1.42362985447144E-01
 cg2d: Sum(rhs),rhsMax =  -4.11328790273744E-04  1.42366309002921E-01
 cg2d: Sum(rhs),rhsMax =  -4.10948001141208E-04  1.42369625128642E-01
 cg2d: Sum(rhs),rhsMax =  -4.10568995436487E-04  1.42372933849230E-01
 cg2d: Sum(rhs),rhsMax =  -4.10191770802214E-04  1.42376235189584E-01
 cg2d: Sum(rhs),rhsMax =  -4.09816324925260E-04  1.42379529174578E-01
 cg2d: Sum(rhs),rhsMax =  -4.09442655346875E-04  1.42382815829063E-01
 cg2d: Sum(rhs),rhsMax =  -4.09070759501699E-04  1.42386095177865E-01
 cg2d: Sum(rhs),rhsMax =  -4.08700634952331E-04  1.42389367245785E-01
 cg2d: Sum(rhs),rhsMax =  -4.08332279101906E-04  1.42392632057602E-01
 cg2d: Sum(rhs),rhsMax =  -4.07965689343580E-04  1.42395889638067E-01
 cg2d: Sum(rhs),rhsMax =  -4.07600863040186E-04  1.42399140011908E-01
 cg2d: Sum(rhs),rhsMax =  -4.07237797314026E-04  1.42402383203831E-01
 cg2d: Sum(rhs),rhsMax =  -4.06876489573472E-04  1.42405619238512E-01
 cg2d: Sum(rhs),rhsMax =  -4.06516936980405E-04  1.42408848140608E-01
 cg2d: Sum(rhs),rhsMax =  -4.06159136761623E-04  1.42412069934748E-01
 cg2d: Sum(rhs),rhsMax =  -4.05803085940908E-04  1.42415284645535E-01
 cg2d: Sum(rhs),rhsMax =  -4.05448781677396E-04  1.42418492297551E-01
 cg2d: Sum(rhs),rhsMax =  -4.05096220993917E-04  1.42421692915351E-01
 cg2d: Sum(rhs),rhsMax =  -4.04745400878399E-04  1.42424886523465E-01
 cg2d: Sum(rhs),rhsMax =  -4.04396318323488E-04  1.42428073146397E-01
 cg2d: Sum(rhs),rhsMax =  -4.04048970294059E-04  1.42431252808629E-01
 cg2d: Sum(rhs),rhsMax =  -4.03703353720240E-04  1.42434425534616E-01
 cg2d: Sum(rhs),rhsMax =  -4.03359465399679E-04  1.42437591348786E-01
 cg2d: Sum(rhs),rhsMax =  -4.03017302173996E-04  1.42440750275547E-01
 cg2d: Sum(rhs),rhsMax =  -4.02676860829757E-04  1.42443902339275E-01
 cg2d: Sum(rhs),rhsMax =  -4.02252490679169E-04  1.42447048045015E-01
 cg2d: Sum(rhs),rhsMax =  -4.01830017243822E-04  1.42450186466293E-01
 cg2d: Sum(rhs),rhsMax =  -4.01409539326093E-04  1.42453318088372E-01
 cg2d: Sum(rhs),rhsMax =  -4.00991047793714E-04  1.42456442943246E-01
 cg2d: Sum(rhs),rhsMax =  -4.00574550320895E-04  1.42459561056305E-01
 cg2d: Sum(rhs),rhsMax =  -4.00160045911872E-04  1.42462672452660E-01
 cg2d: Sum(rhs),rhsMax =  -3.99747528018421E-04  1.42465777156500E-01
 cg2d: Sum(rhs),rhsMax =  -3.99336989538059E-04  1.42468875191771E-01
 cg2d: Sum(rhs),rhsMax =  -3.98928425116064E-04  1.42471966582384E-01
 cg2d: Sum(rhs),rhsMax =  -3.98521832011548E-04  1.42475051352273E-01
 cg2d: Sum(rhs),rhsMax =  -3.98117208782853E-04  1.42478129525458E-01
 cg2d: Sum(rhs),rhsMax =  -3.97714554262372E-04  1.42481201126045E-01
 cg2d: Sum(rhs),rhsMax =  -3.97313866731129E-04  1.42484266178159E-01
 cg2d: Sum(rhs),rhsMax =  -3.96915143992561E-04  1.42487324705887E-01
 cg2d: Sum(rhs),rhsMax =  -3.96518383157267E-04  1.42490376733241E-01
 cg2d: Sum(rhs),rhsMax =  -3.96123581354646E-04  1.42493422284181E-01
 cg2d: Sum(rhs),rhsMax =  -3.95730735699629E-04  1.42496461382624E-01
 cg2d: Sum(rhs),rhsMax =  -3.95339843546580E-04  1.42499494052475E-01
 cg2d: Sum(rhs),rhsMax =  -3.94950902261243E-04  1.42502520317618E-01
 cg2d: Sum(rhs),rhsMax =  -3.94563909248489E-04  1.42505540201922E-01
 cg2d: Sum(rhs),rhsMax =  -3.94178861674060E-04  1.42508553729232E-01
 cg2d: Sum(rhs),rhsMax =  -3.93795756853233E-04  1.42511560923364E-01
 cg2d: Sum(rhs),rhsMax =  -3.93414592034376E-04  1.42514561808104E-01
 cg2d: Sum(rhs),rhsMax =  -3.93035364283063E-04  1.42517556407213E-01
 cg2d: Sum(rhs),rhsMax =  -3.92658070600441E-04  1.42520544744421E-01
 cg2d: Sum(rhs),rhsMax =  -3.92282708193866E-04  1.42523526843435E-01
 cg2d: Sum(rhs),rhsMax =  -3.91909274096643E-04  1.42526502727935E-01
 cg2d: Sum(rhs),rhsMax =  -3.91537765430675E-04  1.42529472421574E-01
 cg2d: Sum(rhs),rhsMax =  -3.91168179076413E-04  1.42532435947980E-01
 cg2d: Sum(rhs),rhsMax =  -3.90800512025079E-04  1.42535393330752E-01
 cg2d: Sum(rhs),rhsMax =  -3.90434761262704E-04  1.42538344593465E-01
 cg2d: Sum(rhs),rhsMax =  -3.90070923751095E-04  1.42541289759667E-01
 cg2d: Sum(rhs),rhsMax =  -3.89708996345070E-04  1.42544228852876E-01
 cg2d: Sum(rhs),rhsMax =  -3.89348975883185E-04  1.42547161896586E-01
 cg2d: Sum(rhs),rhsMax =  -3.88990859258692E-04  1.42550088914263E-01
 cg2d: Sum(rhs),rhsMax =  -3.88634643311097E-04  1.42553009929347E-01
 cg2d: Sum(rhs),rhsMax =  -3.88280324770208E-04  1.42555924965250E-01
 cg2d: Sum(rhs),rhsMax =  -3.87927900507620E-04  1.42558834045358E-01
 cg2d: Sum(rhs),rhsMax =  -3.87577367148287E-04  1.42561737193029E-01
 cg2d: Sum(rhs),rhsMax =  -3.87228721426246E-04  1.42564634431592E-01
 cg2d: Sum(rhs),rhsMax =  -3.86881960148333E-04  1.42567525784355E-01
 cg2d: Sum(rhs),rhsMax =  -3.86537079932344E-04  1.42570411274591E-01
 cg2d: Sum(rhs),rhsMax =  -3.86194077440396E-04  1.42573290925552E-01
 cg2d: Sum(rhs),rhsMax =  -3.85852949244619E-04  1.42576164760459E-01
 cg2d: Sum(rhs),rhsMax =  -3.85513692117080E-04  1.42579032802507E-01
 cg2d: Sum(rhs),rhsMax =  -3.85176302450402E-04  1.42581895074863E-01
(PID.TID 0000.0001)      cg2d_init_res =   1.58485558668724E-03
(PID.TID 0000.0001)      cg2d_iters(min,last) =      -1      78
(PID.TID 0000.0001)      cg2d_last_res =   9.57640432879928E-08
(PID.TID 0000.0001) // =======================================================
(PID.TID 0000.0001) // Begin MONITOR dynamic field statistics
(PID.TID 0000.0001) // =======================================================
(PID.TID 0000.0001) %MON time_tsnumber                =                  3600
(PID.TID 0000.0001) %MON time_secondsf                =   4.3200000000000E+06
(PID.TID 0000.0001) %MON dynstat_eta_max              =   5.9773104892485E-02
(PID.TID 0000.0001) %MON dynstat_eta_min              =  -1.9600530905743E-02
(PID.TID 0000.0001) %MON dynstat_eta_mean             =   2.7436213298996E-07
(PID.TID 0000.0001) %MON dynstat_eta_sd               =   1.6055756512405E-02
(PID.TID 0000.0001) %MON dynstat_eta_del2             =   1.6789671926153E-05
(PID.TID 0000.0001) %MON dynstat_uvel_max             =   2.5518131450891E-02
(PID.TID 0000.0001) %MON dynstat_uvel_min             =  -1.5627262967892E-02
(PID.TID 0000.0001) %MON dynstat_uvel_mean            =   1.7576146802603E-07
(PID.TID 0000.0001) %MON dynstat_uvel_sd              =   6.1052358545474E-03
(PID.TID 0000.0001) %MON dynstat_uvel_del2            =   6.7446980698094E-06
(PID.TID 0000.0001) %MON dynstat_vvel_max             =   8.8053047738649E-02
(PID.TID 0000.0001) %MON dynstat_vvel_min             =  -3.0295214731189E-02
(PID.TID 0000.0001) %MON dynstat_vvel_mean            =  -3.3067568867083E-09
(PID.TID 0000.0001) %MON dynstat_vvel_sd              =   1.5908744718027E-02
(PID.TID 0000.0001) %MON dynstat_vvel_del2            =   6.7426888969370E-05
(PID.TID 0000.0001) %MON dynstat_wvel_max             =   1.7685880450736E-08
(PID.TID 0000.0001) %MON dynstat_wvel_min             =  -2.0079213717254E-08
(PID.TID 0000.0001) %MON dynstat_wvel_mean            =   1.5779620652110E-21
(PID.TID 0000.0001) %MON dynstat_wvel_sd              =   7.7643174616714E-09
(PID.TID 0000.0001) %MON dynstat_wvel_del2            =   4.2492156192146E-12
(PID.TID 0000.0001) %MON dynstat_theta_max            =   2.0000000000000E+01
(PID.TID 0000.0001) %MON dynstat_theta_min            =   2.0000000000000E+01
(PID.TID 0000.0001) %MON dynstat_theta_mean           =   2.0000000000000E+01
(PID.TID 0000.0001) %MON dynstat_theta_sd             =   0.0000000000000E+00
(PID.TID 0000.0001) %MON dynstat_theta_del2           =   0.0000000000000E+00
(PID.TID 0000.0001) %MON dynstat_salt_max             =   3.0000000000000E+01
(PID.TID 0000.0001) %MON dynstat_salt_min             =   3.0000000000000E+01
(PID.TID 0000.0001) %MON dynstat_salt_mean            =   3.0000000000000E+01
(PID.TID 0000.0001) %MON dynstat_salt_sd              =   0.0000000000000E+00
(PID.TID 0000.0001) %MON dynstat_salt_del2            =   0.0000000000000E+00
(PID.TID 0000.0001) %MON trAdv_CFL_u_max              =   1.5310017147946E-03
(PID.TID 0000.0001) %MON trAdv_CFL_v_max              =   5.2831386687418E-03
(PID.TID 0000.0001) %MON trAdv_CFL_w_max              =   4.2426457104622E-09
(PID.TID 0000.0001) %MON advcfl_uvel_max              =   1.5310878870535E-03
(PID.TID 0000.0001) %MON advcfl_vvel_max              =   5.2831828643190E-03
(PID.TID 0000.0001) %MON advcfl_wvel_max              =   9.6380225842819E-09
(PID.TID 0000.0001) %MON advcfl_W_hf_max              =   0.0000000000000E+00
(PID.TID 0000.0001) %MON pe_b_mean                    =   2.5288935823297E-07
(PID.TID 0000.0001) %MON ke_max                       =   3.8731778843183E-03
(PID.TID 0000.0001) %MON ke_mean                      =   1.4276134782551E-04
(PID.TID 0000.0001) %MON ke_vol                       =   7.2000000000000E+15
(PID.TID 0000.0001) %MON vort_r_min                   =  -1.2953499915307E-06
(PID.TID 0000.0001) %MON vort_r_max                   =   2.3450495194138E-06
(PID.TID 0000.0001) %MON vort_a_mean                  =   1.0600000000000E-04
(PID.TID 0000.0001) %MON vort_a_sd                    =   3.5351942228683E-06
(PID.TID 0000.0001) %MON vort_p_mean                  =   1.1130000000000E-04
(PID.TID 0000.0001) %MON vort_p_sd                    =   4.1147767170356E-05
(PID.TID 0000.0001) %MON surfExpan_theta_mean         =   3.1551255435463E-20
(PID.TID 0000.0001) %MON surfExpan_salt_mean          =   4.7325619966109E-20
(PID.TID 0000.0001) // =======================================================
(PID.TID 0000.0001) // End MONITOR dynamic field statistics
(PID.TID 0000.0001) // =======================================================
 cg2d: Sum(rhs),rhsMax =  -3.84840777043326E-04  1.42584751600668E-01
 cg2d: Sum(rhs),rhsMax =  -3.84507112319802E-04  1.42587602403034E-01
 cg2d: Sum(rhs),rhsMax =  -3.84175304789921E-04  1.42590447505046E-01
 cg2d: Sum(rhs),rhsMax =  -3.83845351062612E-04  1.42593286929761E-01
 cg2d: Sum(rhs),rhsMax =  -3.83517247581944E-04  1.42596120700208E-01
 cg2d: Sum(rhs),rhsMax =  -3.83190990797001E-04  1.42598948839392E-01
 cg2d: Sum(rhs),rhsMax =  -3.82866577152267E-04  1.42601771370284E-01
 cg2d: Sum(rhs),rhsMax =  -3.82544003174681E-04  1.42604588315832E-01
 cg2d: Sum(rhs),rhsMax =  -3.82223265243049E-04  1.42607399698954E-01
 cg2d: Sum(rhs),rhsMax =  -3.81904359798038E-04  1.42610205542543E-01
 cg2d: Sum(rhs),rhsMax =  -3.81587283234321E-04  1.42613005869460E-01
 cg2d: Sum(rhs),rhsMax =  -3.81272031879975E-04  1.42615800702540E-01
 cg2d: Sum(rhs),rhsMax =  -3.80958602171713E-04  1.42618590064592E-01
 cg2d: Sum(rhs),rhsMax =  -3.80646990388704E-04  1.42621373978393E-01
 cg2d: Sum(rhs),rhsMax =  -3.80254638118954E-04  1.42624152219020E-01
 cg2d: Sum(rhs),rhsMax =  -3.79864525770089E-04  1.42626925320619E-01
 cg2d: Sum(rhs),rhsMax =  -3.79476597644592E-04  1.42629693030878E-01
 cg2d: Sum(rhs),rhsMax =  -3.79090894989659E-04  1.42632455381485E-01
 cg2d: Sum(rhs),rhsMax =  -3.78707423565234E-04  1.42635212397326E-01
 cg2d: Sum(rhs),rhsMax =  -3.78326181164195E-04  1.42637964101488E-01
 cg2d: Sum(rhs),rhsMax =  -3.77947160535604E-04  1.42640710516538E-01
 cg2d: Sum(rhs),rhsMax =  -3.77570353934636E-04  1.42643451664880E-01
 cg2d: Sum(rhs),rhsMax =  -3.77195755796382E-04  1.42646187568832E-01
 cg2d: Sum(rhs),rhsMax =  -3.76823362446551E-04  1.42648918250701E-01
 cg2d: Sum(rhs),rhsMax =  -3.76453171801214E-04  1.42651643732865E-01
 cg2d: Sum(rhs),rhsMax =  -3.76085181801059E-04  1.42654364037786E-01
 cg2d: Sum(rhs),rhsMax =  -3.75719389941866E-04  1.42657079187954E-01
 cg2d: Sum(rhs),rhsMax =  -3.75355793132244E-04  1.42659789205812E-01
 cg2d: Sum(rhs),rhsMax =  -3.74994387854338E-04  1.42662494113736E-01
 cg2d: Sum(rhs),rhsMax =  -3.74635170365544E-04  1.42665193934040E-01
 cg2d: Sum(rhs),rhsMax =  -3.74278137083071E-04  1.42667888689001E-01
 cg2d: Sum(rhs),rhsMax =  -3.73923284667508E-04  1.42670578400871E-01
 cg2d: Sum(rhs),rhsMax =  -3.73570609635645E-04  1.42673263091885E-01
 cg2d: Sum(rhs),rhsMax =  -3.73220108662462E-04  1.42675942784253E-01
 cg2d: Sum(rhs),rhsMax =  -3.72871778276479E-04  1.42678617500161E-01
 cg2d: Sum(rhs),rhsMax =  -3.72525614772789E-04  1.42681287261762E-01
 cg2d: Sum(rhs),rhsMax =  -3.72181614708868E-04  1.42683952091181E-01
 cg2d: Sum(rhs),rhsMax =  -3.71839774453111E-04  1.42686612010509E-01
 cg2d: Sum(rhs),rhsMax =  -3.71500090260559E-04  1.42689267041809E-01
 cg2d: Sum(rhs),rhsMax =  -3.71162558482995E-04  1.42691917207117E-01
 cg2d: Sum(rhs),rhsMax =  -3.70827175310636E-04  1.42694562528439E-01
 cg2d: Sum(rhs),rhsMax =  -3.70493937109360E-04  1.42697203027750E-01
 cg2d: Sum(rhs),rhsMax =  -3.70162840000983E-04  1.42699838726999E-01
 cg2d: Sum(rhs),rhsMax =  -3.69833880239129E-04  1.42702469648106E-01
 cg2d: Sum(rhs),rhsMax =  -3.69507053807536E-04  1.42705095812958E-01
 cg2d: Sum(rhs),rhsMax =  -3.69182356961678E-04  1.42707717243414E-01
 cg2d: Sum(rhs),rhsMax =  -3.68859785697191E-04  1.42710333961305E-01
 cg2d: Sum(rhs),rhsMax =  -3.68539336015969E-04  1.42712945988430E-01
 cg2d: Sum(rhs),rhsMax =  -3.68221003980822E-04  1.42715553346560E-01
 cg2d: Sum(rhs),rhsMax =  -3.67904785602779E-04  1.42718156057438E-01
 cg2d: Sum(rhs),rhsMax =  -3.67590676685520E-04  1.42720754142774E-01
 cg2d: Sum(rhs),rhsMax =  -3.67278673128528E-04  1.42723347624252E-01
 cg2d: Sum(rhs),rhsMax =  -3.66968770920730E-04  1.42725936523523E-01
 cg2d: Sum(rhs),rhsMax =  -3.66660965797949E-04  1.42728520862211E-01
 cg2d: Sum(rhs),rhsMax =  -3.66355253539703E-04  1.42731100661908E-01
 cg2d: Sum(rhs),rhsMax =  -3.66051629881634E-04  1.42733675944177E-01
 cg2d: Sum(rhs),rhsMax =  -3.65750090594453E-04  1.42736246730553E-01
 cg2d: Sum(rhs),rhsMax =  -3.65450631378467E-04  1.42738813042537E-01
 cg2d: Sum(rhs),rhsMax =  -3.65153247849749E-04  1.42741374901604E-01
 cg2d: Sum(rhs),rhsMax =  -3.64857935576069E-04  1.42743932329198E-01
 cg2d: Sum(rhs),rhsMax =  -3.64564690225465E-04  1.42746485346732E-01
 cg2d: Sum(rhs),rhsMax =  -3.64273507271554E-04  1.42749033975590E-01
 cg2d: Sum(rhs),rhsMax =  -3.63984382283864E-04  1.42751578237124E-01
 cg2d: Sum(rhs),rhsMax =  -3.63697310717565E-04  1.42754118152659E-01
 cg2d: Sum(rhs),rhsMax =  -3.63412287939529E-04  1.42756653743487E-01
 cg2d: Sum(rhs),rhsMax =  -3.63128976969578E-04  1.42759315723318E-01
 cg2d: Sum(rhs),rhsMax =  -3.62845479222468E-04  1.42762849605442E-01
 cg2d: Sum(rhs),rhsMax =  -3.62564019938808E-04  1.42766379417043E-01
 cg2d: Sum(rhs),rhsMax =  -3.62284594503284E-04  1.42769905178461E-01
 cg2d: Sum(rhs),rhsMax =  -3.61948559799270E-04  1.42773427042201E-01
 cg2d: Sum(rhs),rhsMax =  -3.61614859853288E-04  1.42776944783611E-01
 cg2d: Sum(rhs),rhsMax =  -3.61283578648588E-04  1.42780458517579E-01
(PID.TID 0000.0001)      cg2d_init_res =   1.57146951697625E-03
(PID.TID 0000.0001)      cg2d_iters(min,last) =      -1      76
(PID.TID 0000.0001)      cg2d_last_res =   9.93018727892840E-08
(PID.TID 0000.0001) // =======================================================
(PID.TID 0000.0001) // Begin MONITOR dynamic field statistics
(PID.TID 0000.0001) // =======================================================
(PID.TID 0000.0001) %MON time_tsnumber                =                  3672
(PID.TID 0000.0001) %MON time_secondsf                =   4.4064000000000E+06
(PID.TID 0000.0001) %MON dynstat_eta_max              =   5.9080864382659E-02
(PID.TID 0000.0001) %MON dynstat_eta_min              =  -1.9834926247601E-02
(PID.TID 0000.0001) %MON dynstat_eta_mean             =   2.5769271922444E-07
(PID.TID 0000.0001) %MON dynstat_eta_sd               =   1.5941436663087E-02
(PID.TID 0000.0001) %MON dynstat_eta_del2             =   1.6943510982865E-05
(PID.TID 0000.0001) %MON dynstat_uvel_max             =   2.5621063508593E-02
(PID.TID 0000.0001) %MON dynstat_uvel_min             =  -1.5418982193004E-02
(PID.TID 0000.0001) %MON dynstat_uvel_mean            =   1.4714985243527E-07
(PID.TID 0000.0001) %MON dynstat_uvel_sd              =   6.1320164080289E-03
(PID.TID 0000.0001) %MON dynstat_uvel_del2            =   6.7826230867988E-06
(PID.TID 0000.0001) %MON dynstat_vvel_max             =   8.8088923547082E-02
(PID.TID 0000.0001) %MON dynstat_vvel_min             =  -3.0855980552453E-02
(PID.TID 0000.0001) %MON dynstat_vvel_mean            =  -5.3840763861018E-09
(PID.TID 0000.0001) %MON dynstat_vvel_sd              =   1.5896605812050E-02
(PID.TID 0000.0001) %MON dynstat_vvel_del2            =   6.7852890965682E-05
(PID.TID 0000.0001) %MON dynstat_wvel_max             =   1.8303780311981E-08
(PID.TID 0000.0001) %MON dynstat_wvel_min             =  -1.9208277063444E-08
(PID.TID 0000.0001) %MON dynstat_wvel_mean            =  -2.2239217085169E-22
(PID.TID 0000.0001) %MON dynstat_wvel_sd              =   7.7094722732962E-09
(PID.TID 0000.0001) %MON dynstat_wvel_del2            =   4.2034161247593E-12
(PID.TID 0000.0001) %MON dynstat_theta_max            =   2.0000000000000E+01
(PID.TID 0000.0001) %MON dynstat_theta_min            =   2.0000000000000E+01
(PID.TID 0000.0001) %MON dynstat_theta_mean           =   2.0000000000000E+01
(PID.TID 0000.0001) %MON dynstat_theta_sd             =   0.0000000000000E+00
(PID.TID 0000.0001) %MON dynstat_theta_del2           =   0.0000000000000E+00
(PID.TID 0000.0001) %MON dynstat_salt_max             =   3.0000000000000E+01
(PID.TID 0000.0001) %MON dynstat_salt_min             =   3.0000000000000E+01
(PID.TID 0000.0001) %MON dynstat_salt_mean            =   3.0000000000000E+01
(PID.TID 0000.0001) %MON dynstat_salt_sd              =   0.0000000000000E+00
(PID.TID 0000.0001) %MON dynstat_salt_del2            =   0.0000000000000E+00
(PID.TID 0000.0001) %MON trAdv_CFL_u_max              =   1.5371781883570E-03
(PID.TID 0000.0001) %MON trAdv_CFL_v_max              =   5.2853185561376E-03
(PID.TID 0000.0001) %MON trAdv_CFL_w_max              =   4.3909472378204E-09
(PID.TID 0000.0001) %MON advcfl_uvel_max              =   1.5372638105156E-03
(PID.TID 0000.0001) %MON advcfl_vvel_max              =   5.2853354128249E-03
(PID.TID 0000.0001) %MON advcfl_wvel_max              =   9.2199729904532E-09
(PID.TID 0000.0001) %MON advcfl_W_hf_max              =   0.0000000000000E+00
(PID.TID 0000.0001) %MON pe_b_mean                    =   2.4930094429358E-07
(PID.TID 0000.0001) %MON ke_max                       =   3.8786923445761E-03
(PID.TID 0000.0001) %MON ke_mean                      =   1.4273265328358E-04
(PID.TID 0000.0001) %MON ke_vol                       =   7.2000000000000E+15
(PID.TID 0000.0001) %MON vort_r_min                   =  -1.3144557844626E-06
(PID.TID 0000.0001) %MON vort_r_max                   =   2.3465262010297E-06
(PID.TID 0000.0001) %MON vort_a_mean                  =   1.0600000000000E-04
(PID.TID 0000.0001) %MON vort_a_sd                    =   3.5353548602751E-06
(PID.TID 0000.0001) %MON vort_p_mean                  =   1.1130000000000E-04
(PID.TID 0000.0001) %MON vort_p_sd                    =   4.1148288283561E-05
(PID.TID 0000.0001) %MON surfExpan_theta_mean         =  -4.4457869484581E-21
(PID.TID 0000.0001) %MON surfExpan_salt_mean          =  -6.6702594065444E-21
(PID.TID 0000.0001) // =======================================================
(PID.TID 0000.0001) // End MONITOR dynamic field statistics
(PID.TID 0000.0001) // =======================================================
 cg2d: Sum(rhs),rhsMax =  -3.60954695855198E-04  1.42783968281480E-01
 cg2d: Sum(rhs),rhsMax =  -3.60628209729276E-04  1.42787474096683E-01
 cg2d: Sum(rhs),rhsMax =  -3.60304115056160E-04  1.42790975983299E-01
 cg2d: Sum(rhs),rhsMax =  -3.59982404034741E-04  1.42794473961475E-01
 cg2d: Sum(rhs),rhsMax =  -3.59663068554161E-04  1.42797968051292E-01
 cg2d: Sum(rhs),rhsMax =  -3.59346101556118E-04  1.42801458272715E-01
 cg2d: Sum(rhs),rhsMax =  -3.59031497081966E-04  1.42804944645652E-01
 cg2d: Sum(rhs),rhsMax =  -3.58719249521854E-04  1.42808427190043E-01
 cg2d: Sum(rhs),rhsMax =  -3.58409353682358E-04  1.42811905925870E-01
 cg2d: Sum(rhs),rhsMax =  -3.58101803832016E-04  1.42815380873126E-01
 cg2d: Sum(rhs),rhsMax =  -3.57796593997280E-04  1.42818852051762E-01
 cg2d: Sum(rhs),rhsMax =  -3.57493717902575E-04  1.42822319481674E-01
 cg2d: Sum(rhs),rhsMax =  -3.57193169137542E-04  1.42825783182708E-01
 cg2d: Sum(rhs),rhsMax =  -3.56894941371131E-04  1.42829243174675E-01
 cg2d: Sum(rhs),rhsMax =  -3.56599028353150E-04  1.42832699477354E-01
 cg2d: Sum(rhs),rhsMax =  -3.56305423465947E-04  1.42836152110505E-01
 cg2d: Sum(rhs),rhsMax =  -3.56014120484810E-04  1.42839601093854E-01
 cg2d: Sum(rhs),rhsMax =  -3.55725112802407E-04  1.42843046447100E-01
 cg2d: Sum(rhs),rhsMax =  -3.55438393821510E-04  1.42846488189909E-01
 cg2d: Sum(rhs),rhsMax =  -3.55153956979314E-04  1.42849926341913E-01
 cg2d: Sum(rhs),rhsMax =  -3.54871795428998E-04  1.42853360922716E-01
 cg2d: Sum(rhs),rhsMax =  -3.54591902452296E-04  1.42856791951891E-01
 cg2d: Sum(rhs),rhsMax =  -3.54314271122425E-04  1.42860219448975E-01
 cg2d: Sum(rhs),rhsMax =  -3.54038894566073E-04  1.42863643433480E-01
 cg2d: Sum(rhs),rhsMax =  -3.53765765813539E-04  1.42867063924883E-01
 cg2d: Sum(rhs),rhsMax =  -3.53494877827308E-04  1.42870480942631E-01
 cg2d: Sum(rhs),rhsMax =  -3.53226223423540E-04  1.42873894506140E-01
 cg2d: Sum(rhs),rhsMax =  -3.52959795509194E-04  1.42877304634793E-01
 cg2d: Sum(rhs),rhsMax =  -3.52695586802221E-04  1.42880711347943E-01
 cg2d: Sum(rhs),rhsMax =  -3.52433590027703E-04  1.42884114664909E-01
 cg2d: Sum(rhs),rhsMax =  -3.52173797795916E-04  1.42887514604981E-01
 cg2d: Sum(rhs),rhsMax =  -3.51916202633847E-04  1.42890911187416E-01
 cg2d: Sum(rhs),rhsMax =  -3.51660796957507E-04  1.42894304431441E-01
 cg2d: Sum(rhs),rhsMax =  -3.51407573383481E-04  1.42897694356250E-01
 cg2d: Sum(rhs),rhsMax =  -3.51156524107168E-04  1.42901080981006E-01
 cg2d: Sum(rhs),rhsMax =  -3.50907641507762E-04  1.42904464324840E-01
 cg2d: Sum(rhs),rhsMax =  -3.50660917859082E-04  1.42907844406852E-01
 cg2d: Sum(rhs),rhsMax =  -3.50416345127905E-04  1.42911221246108E-01
 cg2d: Sum(rhs),rhsMax =  -3.50173915573714E-04  1.42914594861646E-01
 cg2d: Sum(rhs),rhsMax =  -3.49933621141549E-04  1.42917965272468E-01
 cg2d: Sum(rhs),rhsMax =  -3.49638778540317E-04  1.42921332413741E-01
 cg2d: Sum(rhs),rhsMax =  -3.49346406311590E-04  1.42924696474391E-01
 cg2d: Sum(rhs),rhsMax =  -3.49056450529038E-04  1.42928057386924E-01
 cg2d: Sum(rhs),rhsMax =  -3.48768924824387E-04  1.42931415170789E-01
 cg2d: Sum(rhs),rhsMax =  -3.48483821010196E-04  1.42934769844745E-01
 cg2d: Sum(rhs),rhsMax =  -3.48201129571684E-04  1.42938121427421E-01
 cg2d: Sum(rhs),rhsMax =  -3.47920839360616E-04  1.42941469937582E-01
 cg2d: Sum(rhs),rhsMax =  -3.47642939138751E-04  1.42944815394045E-01
 cg2d: Sum(rhs),rhsMax =  -3.47367418359501E-04  1.42948157815485E-01
 cg2d: Sum(rhs),rhsMax =  -3.47094266869618E-04  1.42951497220483E-01
 cg2d: Sum(rhs),rhsMax =  -3.46823474902599E-04  1.42954833627621E-01
 cg2d: Sum(rhs),rhsMax =  -3.46555032387571E-04  1.42958167055511E-01
 cg2d: Sum(rhs),rhsMax =  -3.46288929297636E-04  1.42961497522773E-01
 cg2d: Sum(rhs),rhsMax =  -3.46025155176300E-04  1.42964825047990E-01
 cg2d: Sum(rhs),rhsMax =  -3.45763699434373E-04  1.42968149649700E-01
 cg2d: Sum(rhs),rhsMax =  -3.45504551368185E-04  1.42971471346396E-01
 cg2d: Sum(rhs),rhsMax =  -3.45247700349267E-04  1.42974790156534E-01
 cg2d: Sum(rhs),rhsMax =  -3.44993135499999E-04  1.42978106098536E-01
 cg2d: Sum(rhs),rhsMax =  -3.44740846108676E-04  1.42981419190793E-01
 cg2d: Sum(rhs),rhsMax =  -3.44490821108127E-04  1.42984729451665E-01
 cg2d: Sum(rhs),rhsMax =  -3.44243049564094E-04  1.42988036899477E-01
 cg2d: Sum(rhs),rhsMax =  -3.43997520404285E-04  1.42991341552524E-01
 cg2d: Sum(rhs),rhsMax =  -3.43754222435006E-04  1.42994643429065E-01
 cg2d: Sum(rhs),rhsMax =  -3.43513144314102E-04  1.42997942547333E-01
 cg2d: Sum(rhs),rhsMax =  -3.43274274682088E-04  1.43001238925521E-01
 cg2d: Sum(rhs),rhsMax =  -3.43037602158858E-04  1.43004532581798E-01
 cg2d: Sum(rhs),rhsMax =  -3.42803115116300E-04  1.43007823534296E-01
 cg2d: Sum(rhs),rhsMax =  -3.42570802067260E-04  1.43011111801116E-01
 cg2d: Sum(rhs),rhsMax =  -3.42340651255916E-04  1.43014397400324E-01
 cg2d: Sum(rhs),rhsMax =  -3.42112650948159E-04  1.43017680349953E-01
 cg2d: Sum(rhs),rhsMax =  -3.41886789169350E-04  1.43020960668006E-01
 cg2d: Sum(rhs),rhsMax =  -3.41663054106800E-04  1.43024238372448E-01
(PID.TID 0000.0001)      cg2d_init_res =   1.55836759189703E-03
(PID.TID 0000.0001)      cg2d_iters(min,last) =      -1      75
(PID.TID 0000.0001)      cg2d_last_res =   9.47200128810892E-08
(PID.TID 0000.0001) // =======================================================
(PID.TID 0000.0001) // Begin MONITOR dynamic field statistics
(PID.TID 0000.0001) // =======================================================
(PID.TID 0000.0001) %MON time_tsnumber                =                  3744
(PID.TID 0000.0001) %MON time_secondsf                =   4.4928000000000E+06
(PID.TID 0000.0001) %MON dynstat_eta_max              =   5.8379160334562E-02
(PID.TID 0000.0001) %MON dynstat_eta_min              =  -2.0095102670891E-02
(PID.TID 0000.0001) %MON dynstat_eta_mean             =   2.4417759623226E-07
(PID.TID 0000.0001) %MON dynstat_eta_sd               =   1.5870218865507E-02
(PID.TID 0000.0001) %MON dynstat_eta_del2             =   1.7086578098411E-05
(PID.TID 0000.0001) %MON dynstat_uvel_max             =   2.5724163831103E-02
(PID.TID 0000.0001) %MON dynstat_uvel_min             =  -1.5247436377894E-02
(PID.TID 0000.0001) %MON dynstat_uvel_mean            =   1.1668922553307E-07
(PID.TID 0000.0001) %MON dynstat_uvel_sd              =   6.1704182277471E-03
(PID.TID 0000.0001) %MON dynstat_uvel_del2            =   6.8309724033819E-06
(PID.TID 0000.0001) %MON dynstat_vvel_max             =   8.8114599847796E-02
(PID.TID 0000.0001) %MON dynstat_vvel_min             =  -3.1336389657714E-02
(PID.TID 0000.0001) %MON dynstat_vvel_mean            =  -7.2914699241709E-09
(PID.TID 0000.0001) %MON dynstat_vvel_sd              =   1.5882335658358E-02
(PID.TID 0000.0001) %MON dynstat_vvel_del2            =   6.8250395746663E-05
(PID.TID 0000.0001) %MON dynstat_wvel_max             =   1.8885366444738E-08
(PID.TID 0000.0001) %MON dynstat_wvel_min             =  -1.8215237554396E-08
(PID.TID 0000.0001) %MON dynstat_wvel_mean            =   4.5321086064279E-21
(PID.TID 0000.0001) %MON dynstat_wvel_sd              =   7.6587973729388E-09
(PID.TID 0000.0001) %MON dynstat_wvel_del2            =   4.1599160342780E-12
(PID.TID 0000.0001) %MON dynstat_theta_max            =   2.0000000000000E+01
(PID.TID 0000.0001) %MON dynstat_theta_min            =   2.0000000000000E+01
(PID.TID 0000.0001) %MON dynstat_theta_mean           =   2.0000000000000E+01
(PID.TID 0000.0001) %MON dynstat_theta_sd             =   0.0000000000000E+00
(PID.TID 0000.0001) %MON dynstat_theta_del2           =   0.0000000000000E+00
(PID.TID 0000.0001) %MON dynstat_salt_max             =   3.0000000000000E+01
(PID.TID 0000.0001) %MON dynstat_salt_min             =   3.0000000000000E+01
(PID.TID 0000.0001) %MON dynstat_salt_mean            =   3.0000000000000E+01
(PID.TID 0000.0001) %MON dynstat_salt_sd              =   0.0000000000000E+00
(PID.TID 0000.0001) %MON dynstat_salt_del2            =   0.0000000000000E+00
(PID.TID 0000.0001) %MON trAdv_CFL_u_max              =   1.5433634157796E-03
(PID.TID 0000.0001) %MON trAdv_CFL_v_max              =   5.2868350272177E-03
(PID.TID 0000.0001) %MON trAdv_CFL_w_max              =   4.5305118359160E-09
(PID.TID 0000.0001) %MON advcfl_uvel_max              =   1.5434498298662E-03
(PID.TID 0000.0001) %MON advcfl_vvel_max              =   5.2868759908677E-03
(PID.TID 0000.0001) %MON advcfl_wvel_max              =   9.0649758934742E-09
(PID.TID 0000.0001) %MON advcfl_W_hf_max              =   0.0000000000000E+00
(PID.TID 0000.0001) %MON pe_b_mean                    =   2.4707843380765E-07
(PID.TID 0000.0001) %MON ke_max                       =   3.8816059435372E-03
(PID.TID 0000.0001) %MON ke_mean                      =   1.4274196814950E-04
(PID.TID 0000.0001) %MON ke_vol                       =   7.2000000000000E+15
(PID.TID 0000.0001) %MON vort_r_min                   =  -1.3326097850482E-06
(PID.TID 0000.0001) %MON vort_r_max                   =   2.3484968567724E-06
(PID.TID 0000.0001) %MON vort_a_mean                  =   1.0600000000000E-04
(PID.TID 0000.0001) %MON vort_a_sd                    =   3.5355058131179E-06
(PID.TID 0000.0001) %MON vort_p_mean                  =   1.1130000000000E-04
(PID.TID 0000.0001) %MON vort_p_sd                    =   4.1148773525892E-05
(PID.TID 0000.0001) %MON surfExpan_theta_mean         =   9.0629252251044E-20
(PID.TID 0000.0001) %MON surfExpan_salt_mean          =   1.3594103620562E-19
(PID.TID 0000.0001) // =======================================================
(PID.TID 0000.0001) // End MONITOR dynamic field statistics
(PID.TID 0000.0001) // =======================================================
 cg2d: Sum(rhs),rhsMax =  -3.41441433582669E-04  1.43027513481216E-01
 cg2d: Sum(rhs),rhsMax =  -3.41221915627834E-04  1.43030786012210E-01
 cg2d: Sum(rhs),rhsMax =  -3.41004487883079E-04  1.43034055983299E-01
 cg2d: Sum(rhs),rhsMax =  -3.40789138213034E-04  1.43037323412320E-01
 cg2d: Sum(rhs),rhsMax =  -3.40575854106251E-04  1.43040588317077E-01
 cg2d: Sum(rhs),rhsMax =  -3.40364623322381E-04  1.43043850715338E-01
 cg2d: Sum(rhs),rhsMax =  -3.40155433123296E-04  1.43047110624843E-01
 cg2d: Sum(rhs),rhsMax =  -3.39948271054048E-04  1.43050368063293E-01
 cg2d: Sum(rhs),rhsMax =  -3.39743124434519E-04  1.43053623048362E-01
 cg2d: Sum(rhs),rhsMax =  -3.39539980320113E-04  1.43056875597684E-01
 cg2d: Sum(rhs),rhsMax =  -3.39338826020620E-04  1.43060125728866E-01
 cg2d: Sum(rhs),rhsMax =  -3.39139648544820E-04  1.43063373459479E-01
 cg2d: Sum(rhs),rhsMax =  -3.38942434847301E-04  1.43066618807059E-01
 cg2d: Sum(rhs),rhsMax =  -3.38747171990813E-04  1.43069861789112E-01
 cg2d: Sum(rhs),rhsMax =  -3.38553846668430E-04  1.43073102423108E-01
 cg2d: Sum(rhs),rhsMax =  -3.38362445599048E-04  1.43076340726486E-01
 cg2d: Sum(rhs),rhsMax =  -3.38172955501184E-04  1.43079576716651E-01
 cg2d: Sum(rhs),rhsMax =  -3.37985363086910E-04  1.43082810410974E-01
 cg2d: Sum(rhs),rhsMax =  -3.37799654776932E-04  1.43086041826791E-01
 cg2d: Sum(rhs),rhsMax =  -3.37615816910350E-04  1.43089270981408E-01
 cg2d: Sum(rhs),rhsMax =  -3.37433836013439E-04  1.43092497892095E-01
 cg2d: Sum(rhs),rhsMax =  -3.37253698292734E-04  1.43095722576090E-01
 cg2d: Sum(rhs),rhsMax =  -3.37075390006118E-04  1.43098945050595E-01
 cg2d: Sum(rhs),rhsMax =  -3.36898897265133E-04  1.43102165332781E-01
 cg2d: Sum(rhs),rhsMax =  -3.36724206139635E-04  1.43105383439784E-01
 cg2d: Sum(rhs),rhsMax =  -3.36551302578311E-04  1.43108599388709E-01
 cg2d: Sum(rhs),rhsMax =  -3.36380172562522E-04  1.43111813196622E-01
 cg2d: Sum(rhs),rhsMax =  -3.36210801820177E-04  1.43115024880561E-01
 cg2d: Sum(rhs),rhsMax =  -3.36043176228878E-04  1.43118234457525E-01
 cg2d: Sum(rhs),rhsMax =  -3.35877281345276E-04  1.43121441944485E-01
 cg2d: Sum(rhs),rhsMax =  -3.35713102853357E-04  1.43124647358373E-01
 cg2d: Sum(rhs),rhsMax =  -3.35550626407403E-04  1.43127850716091E-01
 cg2d: Sum(rhs),rhsMax =  -3.35389837426913E-04  1.43131052034504E-01
 cg2d: Sum(rhs),rhsMax =  -3.35230721224026E-04  1.43134251330446E-01
 cg2d: Sum(rhs),rhsMax =  -3.35073263174218E-04  1.43137448620715E-01
 cg2d: Sum(rhs),rhsMax =  -3.34917448643702E-04  1.43140643922076E-01
 cg2d: Sum(rhs),rhsMax =  -3.34763262633122E-04  1.43143837251261E-01
 cg2d: Sum(rhs),rhsMax =  -3.34610690477923E-04  1.43147028624965E-01
 cg2d: Sum(rhs),rhsMax =  -3.34459717170278E-04  1.43150218059853E-01
 cg2d: Sum(rhs),rhsMax =  -3.34310327690608E-04  1.43153405572553E-01
 cg2d: Sum(rhs),rhsMax =  -3.34162506954481E-04  1.43156591179660E-01
 cg2d: Sum(rhs),rhsMax =  -3.34016239810515E-04  1.43159774897735E-01
 cg2d: Sum(rhs),rhsMax =  -3.33871511132369E-04  1.43162956743304E-01
 cg2d: Sum(rhs),rhsMax =  -3.33728305491815E-04  1.43166136732861E-01
 cg2d: Sum(rhs),rhsMax =  -3.33586607792142E-04  1.43169314882863E-01
 cg2d: Sum(rhs),rhsMax =  -3.33446402503603E-04  1.43172491209735E-01
 cg2d: Sum(rhs),rhsMax =  -3.33307674160440E-04  1.43175665729867E-01
 cg2d: Sum(rhs),rhsMax =  -3.33170407216443E-04  1.43178838459616E-01
 cg2d: Sum(rhs),rhsMax =  -3.33034586190530E-04  1.43182009415301E-01
 cg2d: Sum(rhs),rhsMax =  -3.32900195284465E-04  1.43185178613211E-01
 cg2d: Sum(rhs),rhsMax =  -3.32767218980455E-04  1.43188346069599E-01
 cg2d: Sum(rhs),rhsMax =  -3.32635641456172E-04  1.43191511800684E-01
 cg2d: Sum(rhs),rhsMax =  -3.32505446813739E-04  1.43194675822648E-01
 cg2d: Sum(rhs),rhsMax =  -3.32376619358516E-04  1.43197838151643E-01
 cg2d: Sum(rhs),rhsMax =  -3.32249142947879E-04  1.43200998803785E-01
 cg2d: Sum(rhs),rhsMax =  -3.32123001686782E-04  1.43204157795153E-01
 cg2d: Sum(rhs),rhsMax =  -3.31998179551657E-04  1.43207315141794E-01
 cg2d: Sum(rhs),rhsMax =  -3.31874660449912E-04  1.43210470859721E-01
 cg2d: Sum(rhs),rhsMax =  -3.31752428230928E-04  1.43213624964912E-01
 cg2d: Sum(rhs),rhsMax =  -3.31631466690545E-04  1.43216777473308E-01
 cg2d: Sum(rhs),rhsMax =  -3.31511759498024E-04  1.43219928400818E-01
 cg2d: Sum(rhs),rhsMax =  -3.31393290432472E-04  1.43223077763318E-01
 cg2d: Sum(rhs),rhsMax =  -3.31276043159728E-04  1.43226225576645E-01
 cg2d: Sum(rhs),rhsMax =  -3.31160001212695E-04  1.43229371856604E-01
 cg2d: Sum(rhs),rhsMax =  -3.31045148064639E-04  1.43232516618965E-01
 cg2d: Sum(rhs),rhsMax =  -3.30931467362878E-04  1.43235659879465E-01
 cg2d: Sum(rhs),rhsMax =  -3.30818942464889E-04  1.43238801653802E-01
 cg2d: Sum(rhs),rhsMax =  -3.30707556817762E-04  1.43241941957643E-01
 cg2d: Sum(rhs),rhsMax =  -3.30597293804863E-04  1.43245080806619E-01
 cg2d: Sum(rhs),rhsMax =  -3.30488136614861E-04  1.43248218216326E-01
 cg2d: Sum(rhs),rhsMax =  -3.30380068751820E-04  1.43251354202326E-01
 cg2d: Sum(rhs),rhsMax =  -3.30273073212944E-04  1.43254488780145E-01
(PID.TID 0000.0001)      cg2d_init_res =   1.54591869336893E-03
(PID.TID 0000.0001)      cg2d_iters(min,last) =      -1      75
(PID.TID 0000.0001)      cg2d_last_res =   8.51048968963683E-08
(PID.TID 0000.0001) // =======================================================
(PID.TID 0000.0001) // Begin MONITOR dynamic field statistics
(PID.TID 0000.0001) // =======================================================
(PID.TID 0000.0001) %MON time_tsnumber                =                  3816
(PID.TID 0000.0001) %MON time_secondsf                =   4.5792000000000E+06
(PID.TID 0000.0001) %MON dynstat_eta_max              =   5.7693174153797E-02
(PID.TID 0000.0001) %MON dynstat_eta_min              =  -2.0376097270325E-02
(PID.TID 0000.0001) %MON dynstat_eta_mean             =   2.3649479182491E-07
(PID.TID 0000.0001) %MON dynstat_eta_sd               =   1.5842445942498E-02
(PID.TID 0000.0001) %MON dynstat_eta_del2             =   1.7219479424215E-05
(PID.TID 0000.0001) %MON dynstat_uvel_max             =   2.5828966624301E-02
(PID.TID 0000.0001) %MON dynstat_uvel_min             =  -1.5083961976568E-02
(PID.TID 0000.0001) %MON dynstat_uvel_mean            =   8.4855359164860E-08
(PID.TID 0000.0001) %MON dynstat_uvel_sd              =   6.2195251640160E-03
(PID.TID 0000.0001) %MON dynstat_uvel_del2            =   6.8890791988825E-06
(PID.TID 0000.0001) %MON dynstat_vvel_max             =   8.8152532660666E-02
(PID.TID 0000.0001) %MON dynstat_vvel_min             =  -3.1731672288320E-02
(PID.TID 0000.0001) %MON dynstat_vvel_mean            =  -9.0116531389862E-09
(PID.TID 0000.0001) %MON dynstat_vvel_sd              =   1.5866777586226E-02
(PID.TID 0000.0001) %MON dynstat_vvel_del2            =   6.8623206163916E-05
(PID.TID 0000.0001) %MON dynstat_wvel_max             =   1.9417191795947E-08
(PID.TID 0000.0001) %MON dynstat_wvel_min             =  -1.7230833424255E-08
(PID.TID 0000.0001) %MON dynstat_wvel_mean            =   1.1699392467158E-21
(PID.TID 0000.0001) %MON dynstat_wvel_sd              =   7.6133364929375E-09
(PID.TID 0000.0001) %MON dynstat_wvel_del2            =   4.1174816266385E-12
(PID.TID 0000.0001) %MON dynstat_theta_max            =   2.0000000000000E+01
(PID.TID 0000.0001) %MON dynstat_theta_min            =   2.0000000000000E+01
(PID.TID 0000.0001) %MON dynstat_theta_mean           =   2.0000000000000E+01
(PID.TID 0000.0001) %MON dynstat_theta_sd             =   0.0000000000000E+00
(PID.TID 0000.0001) %MON dynstat_theta_del2           =   0.0000000000000E+00
(PID.TID 0000.0001) %MON dynstat_salt_max             =   3.0000000000000E+01
(PID.TID 0000.0001) %MON dynstat_salt_min             =   3.0000000000000E+01
(PID.TID 0000.0001) %MON dynstat_salt_mean            =   3.0000000000000E+01
(PID.TID 0000.0001) %MON dynstat_salt_sd              =   0.0000000000000E+00
(PID.TID 0000.0001) %MON dynstat_salt_del2            =   0.0000000000000E+00
(PID.TID 0000.0001) %MON trAdv_CFL_u_max              =   1.5496495770954E-03
(PID.TID 0000.0001) %MON trAdv_CFL_v_max              =   5.2891287211520E-03
(PID.TID 0000.0001) %MON trAdv_CFL_w_max              =   4.6581235038349E-09
(PID.TID 0000.0001) %MON advcfl_uvel_max              =   1.5497379974580E-03
(PID.TID 0000.0001) %MON advcfl_vvel_max              =   5.2891519596399E-03
(PID.TID 0000.0001) %MON advcfl_wvel_max              =   9.3202520620544E-09
(PID.TID 0000.0001) %MON advcfl_W_hf_max              =   0.0000000000000E+00
(PID.TID 0000.0001) %MON pe_b_mean                    =   2.4621441472046E-07
(PID.TID 0000.0001) %MON ke_max                       =   3.8824299796269E-03
(PID.TID 0000.0001) %MON ke_mean                      =   1.4279825275324E-04
(PID.TID 0000.0001) %MON ke_vol                       =   7.2000000000000E+15
(PID.TID 0000.0001) %MON vort_r_min                   =  -1.3497022625859E-06
(PID.TID 0000.0001) %MON vort_r_max                   =   2.3511921063387E-06
(PID.TID 0000.0001) %MON vort_a_mean                  =   1.0600000000000E-04
(PID.TID 0000.0001) %MON vort_a_sd                    =   3.5356485440908E-06
(PID.TID 0000.0001) %MON vort_p_mean                  =   1.1130000000000E-04
(PID.TID 0000.0001) %MON vort_p_sd                    =   4.1149224311684E-05
(PID.TID 0000.0001) %MON surfExpan_theta_mean         =   2.3392330048308E-20
(PID.TID 0000.0001) %MON surfExpan_salt_mean          =   3.5088495072462E-20
(PID.TID 0000.0001) // =======================================================
(PID.TID 0000.0001) // End MONITOR dynamic field statistics
(PID.TID 0000.0001) // =======================================================
 cg2d: Sum(rhs),rhsMax =  -3.30167133300245E-04  1.43257621965276E-01
 cg2d: Sum(rhs),rhsMax =  -3.30062232044840E-04  1.43260753773174E-01
 cg2d: Sum(rhs),rhsMax =  -3.29958352697547E-04  1.43263884219262E-01
 cg2d: Sum(rhs),rhsMax =  -3.29855478265677E-04  1.43267013318927E-01
 cg2d: Sum(rhs),rhsMax =  -3.29753591787457E-04  1.43270141087522E-01
 cg2d: Sum(rhs),rhsMax =  -3.29652676185433E-04  1.43273267540363E-01
 cg2d: Sum(rhs),rhsMax =  -3.29552714528388E-04  1.43276392692733E-01
 cg2d: Sum(rhs),rhsMax =  -3.29453689683313E-04  1.43279516559878E-01
 cg2d: Sum(rhs),rhsMax =  -3.29355584488566E-04  1.43282639157011E-01
 cg2d: Sum(rhs),rhsMax =  -3.29258381835876E-04  1.43285760499309E-01
 cg2d: Sum(rhs),rhsMax =  -3.29162064551418E-04  1.43288880601913E-01
 cg2d: Sum(rhs),rhsMax =  -3.29066615414387E-04  1.43291999479931E-01
 cg2d: Sum(rhs),rhsMax =  -3.28972017176352E-04  1.43295117148436E-01
 cg2d: Sum(rhs),rhsMax =  -3.28878252535877E-04  1.43298233622461E-01
 cg2d: Sum(rhs),rhsMax =  -3.28785304231816E-04  1.43301348917011E-01
 cg2d: Sum(rhs),rhsMax =  -3.28693154997482E-04  1.43304463047049E-01
 cg2d: Sum(rhs),rhsMax =  -3.28601787301219E-04  1.43307576027509E-01
 cg2d: Sum(rhs),rhsMax =  -3.28511183847854E-04  1.43310687873284E-01
 cg2d: Sum(rhs),rhsMax =  -3.28421327193599E-04  1.43313798599237E-01
 cg2d: Sum(rhs),rhsMax =  -3.28332199965956E-04  1.43316908220192E-01
 cg2d: Sum(rhs),rhsMax =  -3.28243784640588E-04  1.43320016750938E-01
 cg2d: Sum(rhs),rhsMax =  -3.28156063740041E-04  1.43323124206232E-01
 cg2d: Sum(rhs),rhsMax =  -3.28069019779125E-04  1.43326230600791E-01
 cg2d: Sum(rhs),rhsMax =  -3.27982635255269E-04  1.43329335949299E-01
 cg2d: Sum(rhs),rhsMax =  -3.27896892619662E-04  1.43332440266406E-01
 cg2d: Sum(rhs),rhsMax =  -3.27811774286978E-04  1.43335543566724E-01
 cg2d: Sum(rhs),rhsMax =  -3.27727262670854E-04  1.43338645864830E-01
 cg2d: Sum(rhs),rhsMax =  -3.27643340290691E-04  1.43341747175268E-01
 cg2d: Sum(rhs),rhsMax =  -3.27559989333557E-04  1.43344847512543E-01
 cg2d: Sum(rhs),rhsMax =  -3.27477192306283E-04  1.43347946891127E-01
 cg2d: Sum(rhs),rhsMax =  -3.27394931588131E-04  1.43351045325456E-01
 cg2d: Sum(rhs),rhsMax =  -3.27313189461463E-04  1.43354142829929E-01
 cg2d: Sum(rhs),rhsMax =  -3.27231948233947E-04  1.43357239418911E-01
 cg2d: Sum(rhs),rhsMax =  -3.27151190376344E-04  1.43360335106732E-01
 cg2d: Sum(rhs),rhsMax =  -3.27070898041332E-04  1.43363429907684E-01
 cg2d: Sum(rhs),rhsMax =  -3.26991053742408E-04  1.43366523836026E-01
 cg2d: Sum(rhs),rhsMax =  -3.26911639577833E-04  1.43369616905980E-01
 cg2d: Sum(rhs),rhsMax =  -3.26832637907352E-04  1.43372709131732E-01
 cg2d: Sum(rhs),rhsMax =  -3.26754031092685E-04  1.43375800527433E-01
 cg2d: Sum(rhs),rhsMax =  -3.26675801338883E-04  1.43378891107197E-01
 cg2d: Sum(rhs),rhsMax =  -3.26597931035394E-04  1.43381980885106E-01
 cg2d: Sum(rhs),rhsMax =  -3.26520402349770E-04  1.43385069875202E-01
 cg2d: Sum(rhs),rhsMax =  -3.26443197712789E-04  1.43388158091494E-01
 cg2d: Sum(rhs),rhsMax =  -3.26366299264740E-04  1.43391245547951E-01
 cg2d: Sum(rhs),rhsMax =  -3.26289689429767E-04  1.43394332258513E-01
 cg2d: Sum(rhs),rhsMax =  -3.26213350537239E-04  1.43397418237080E-01
 cg2d: Sum(rhs),rhsMax =  -3.26137264651238E-04  1.43400503497516E-01
 cg2d: Sum(rhs),rhsMax =  -3.26061414313953E-04  1.43403588053649E-01
 cg2d: Sum(rhs),rhsMax =  -3.25985781803793E-04  1.43406671919273E-01
 cg2d: Sum(rhs),rhsMax =  -3.25910349415025E-04  1.43409755108145E-01
 cg2d: Sum(rhs),rhsMax =  -3.25835099544575E-04  1.43412837633987E-01
 cg2d: Sum(rhs),rhsMax =  -3.25760014440112E-04  1.43415919510483E-01
 cg2d: Sum(rhs),rhsMax =  -3.25685076568710E-04  1.43419000751283E-01
 cg2d: Sum(rhs),rhsMax =  -3.25610268247990E-04  1.43422081370000E-01
 cg2d: Sum(rhs),rhsMax =  -3.25535571931302E-04  1.43425161380211E-01
 cg2d: Sum(rhs),rhsMax =  -3.25460969962586E-04  1.43428240795459E-01
 cg2d: Sum(rhs),rhsMax =  -3.25386444928942E-04  1.43431319629248E-01
 cg2d: Sum(rhs),rhsMax =  -3.25311979148190E-04  1.43434397895048E-01
 cg2d: Sum(rhs),rhsMax =  -3.25237555268637E-04  1.43437475606293E-01
 cg2d: Sum(rhs),rhsMax =  -3.25163155772846E-04  1.43440552776378E-01
 cg2d: Sum(rhs),rhsMax =  -3.25088763124182E-04  1.43443629418667E-01
 cg2d: Sum(rhs),rhsMax =  -3.25014359925145E-04  1.43446705546483E-01
 cg2d: Sum(rhs),rhsMax =  -3.24939928842489E-04  1.43449781173115E-01
 cg2d: Sum(rhs),rhsMax =  -3.24865452445292E-04  1.43452856311817E-01
 cg2d: Sum(rhs),rhsMax =  -3.24790913441915E-04  1.43455930975805E-01
 cg2d: Sum(rhs),rhsMax =  -3.24716294644789E-04  1.43459005178261E-01
 cg2d: Sum(rhs),rhsMax =  -3.24641578701956E-04  1.43462078932326E-01
 cg2d: Sum(rhs),rhsMax =  -3.24566748493823E-04  1.43465152251111E-01
 cg2d: Sum(rhs),rhsMax =  -3.24491786801620E-04  1.43468225147687E-01
 cg2d: Sum(rhs),rhsMax =  -3.24416676566080E-04  1.43471297635089E-01
 cg2d: Sum(rhs),rhsMax =  -3.24341400602825E-04  1.43474369726318E-01
 cg2d: Sum(rhs),rhsMax =  -3.24265942140207E-04  1.43477441434335E-01
(PID.TID 0000.0001)      cg2d_init_res =   1.53381845893142E-03
(PID.TID 0000.0001)      cg2d_iters(min,last) =      -1      75
(PID.TID 0000.0001)      cg2d_last_res =   8.20553016070709E-08
(PID.TID 0000.0001) // =======================================================
(PID.TID 0000.0001) // Begin MONITOR dynamic field statistics
(PID.TID 0000.0001) // =======================================================
(PID.TID 0000.0001) %MON time_tsnumber                =                  3888
(PID.TID 0000.0001) %MON time_secondsf                =   4.6656000000000E+06
(PID.TID 0000.0001) %MON dynstat_eta_max              =   5.6998794796100E-02
(PID.TID 0000.0001) %MON dynstat_eta_min              =  -2.0672681264927E-02
(PID.TID 0000.0001) %MON dynstat_eta_mean             =   2.3257494097610E-07
(PID.TID 0000.0001) %MON dynstat_eta_sd               =   1.5857505652049E-02
(PID.TID 0000.0001) %MON dynstat_eta_del2             =   1.7342830898850E-05
(PID.TID 0000.0001) %MON dynstat_uvel_max             =   2.5936844642697E-02
(PID.TID 0000.0001) %MON dynstat_uvel_min             =  -1.4930322232297E-02
(PID.TID 0000.0001) %MON dynstat_uvel_mean            =   5.2135228842969E-08
(PID.TID 0000.0001) %MON dynstat_uvel_sd              =   6.2782156810781E-03
(PID.TID 0000.0001) %MON dynstat_uvel_del2            =   6.9561015788676E-06
(PID.TID 0000.0001) %MON dynstat_vvel_max             =   8.8171796396699E-02
(PID.TID 0000.0001) %MON dynstat_vvel_min             =  -3.2032025616515E-02
(PID.TID 0000.0001) %MON dynstat_vvel_mean            =  -1.0530285077482E-08
(PID.TID 0000.0001) %MON dynstat_vvel_sd              =   1.5850711220527E-02
(PID.TID 0000.0001) %MON dynstat_vvel_del2            =   6.8974978679733E-05
(PID.TID 0000.0001) %MON dynstat_wvel_max             =   1.9893867880019E-08
(PID.TID 0000.0001) %MON dynstat_wvel_min             =  -1.6220937712351E-08
(PID.TID 0000.0001) %MON dynstat_wvel_mean            =   4.0578116669268E-23
(PID.TID 0000.0001) %MON dynstat_wvel_sd              =   7.5738217702300E-09
(PID.TID 0000.0001) %MON dynstat_wvel_del2            =   4.0768280703179E-12
(PID.TID 0000.0001) %MON dynstat_theta_max            =   2.0000000000000E+01
(PID.TID 0000.0001) %MON dynstat_theta_min            =   2.0000000000000E+01
(PID.TID 0000.0001) %MON dynstat_theta_mean           =   2.0000000000000E+01
(PID.TID 0000.0001) %MON dynstat_theta_sd             =   0.0000000000000E+00
(PID.TID 0000.0001) %MON dynstat_theta_del2           =   0.0000000000000E+00
(PID.TID 0000.0001) %MON dynstat_salt_max             =   3.0000000000000E+01
(PID.TID 0000.0001) %MON dynstat_salt_min             =   3.0000000000000E+01
(PID.TID 0000.0001) %MON dynstat_salt_mean            =   3.0000000000000E+01
(PID.TID 0000.0001) %MON dynstat_salt_sd              =   0.0000000000000E+00
(PID.TID 0000.0001) %MON dynstat_salt_del2            =   0.0000000000000E+00
(PID.TID 0000.0001) %MON trAdv_CFL_u_max              =   1.5561191785132E-03
(PID.TID 0000.0001) %MON trAdv_CFL_v_max              =   5.2902980609558E-03
(PID.TID 0000.0001) %MON trAdv_CFL_w_max              =   4.7733449080260E-09
(PID.TID 0000.0001) %MON advcfl_uvel_max              =   1.5562106785618E-03
(PID.TID 0000.0001) %MON advcfl_vvel_max              =   5.2903077838020E-03
(PID.TID 0000.0001) %MON advcfl_wvel_max              =   9.5490565824090E-09
(PID.TID 0000.0001) %MON advcfl_W_hf_max              =   0.0000000000000E+00
(PID.TID 0000.0001) %MON pe_b_mean                    =   2.4668273633325E-07
(PID.TID 0000.0001) %MON ke_max                       =   3.8816394864992E-03
(PID.TID 0000.0001) %MON ke_mean                      =   1.4290834384927E-04
(PID.TID 0000.0001) %MON ke_vol                       =   7.2000000000000E+15
(PID.TID 0000.0001) %MON vort_r_min                   =  -1.3657562920970E-06
(PID.TID 0000.0001) %MON vort_r_max                   =   2.3540610315961E-06
(PID.TID 0000.0001) %MON vort_a_mean                  =   1.0600000000000E-04
(PID.TID 0000.0001) %MON vort_a_sd                    =   3.5357844325379E-06
(PID.TID 0000.0001) %MON vort_p_mean                  =   1.1130000000000E-04
(PID.TID 0000.0001) %MON vort_p_sd                    =   4.1149641886268E-05
(PID.TID 0000.0001) %MON surfExpan_theta_mean         =   8.1665045096694E-22
(PID.TID 0000.0001) %MON surfExpan_salt_mean          =   1.2227650990503E-21
(PID.TID 0000.0001) // =======================================================
(PID.TID 0000.0001) // End MONITOR dynamic field statistics
(PID.TID 0000.0001) // =======================================================
 cg2d: Sum(rhs),rhsMax =  -3.24190284060139E-04  1.43480512772068E-01
 cg2d: Sum(rhs),rhsMax =  -3.24114409555373E-04  1.43483583752409E-01
 cg2d: Sum(rhs),rhsMax =  -3.24038301814919E-04  1.43486654388210E-01
 cg2d: Sum(rhs),rhsMax =  -3.23961943992649E-04  1.43489724692290E-01
 cg2d: Sum(rhs),rhsMax =  -3.23885319429251E-04  1.43492794677430E-01
 cg2d: Sum(rhs),rhsMax =  -3.23808411458088E-04  1.43495864356375E-01
 cg2d: Sum(rhs),rhsMax =  -3.23731203588762E-04  1.43498933741836E-01
 cg2d: Sum(rhs),rhsMax =  -3.23653679192538E-04  1.43502002846483E-01
 cg2d: Sum(rhs),rhsMax =  -3.23575821997120E-04  1.43505071682953E-01
 cg2d: Sum(rhs),rhsMax =  -3.23497615575629E-04  1.43508140263846E-01
 cg2d: Sum(rhs),rhsMax =  -3.23419043695960E-04  1.43511208601724E-01
 cg2d: Sum(rhs),rhsMax =  -3.23340090174830E-04  1.43514276709115E-01
 cg2d: Sum(rhs),rhsMax =  -3.23260738920871E-04  1.43517344598508E-01
 cg2d: Sum(rhs),rhsMax =  -3.23180973996015E-04  1.43520412282359E-01
 cg2d: Sum(rhs),rhsMax =  -3.23100779417405E-04  1.43523479773083E-01
 cg2d: Sum(rhs),rhsMax =  -3.23020139505263E-04  1.43526547083062E-01
 cg2d: Sum(rhs),rhsMax =  -3.22939038494472E-04  1.43529614224639E-01
 cg2d: Sum(rhs),rhsMax =  -3.22857460769861E-04  1.43532681210124E-01
 cg2d: Sum(rhs),rhsMax =  -3.22775390915981E-04  1.43535748051786E-01
 cg2d: Sum(rhs),rhsMax =  -3.22692813444249E-04  1.43538814761861E-01
 cg2d: Sum(rhs),rhsMax =  -3.22609713238635E-04  1.43541881352547E-01
 cg2d: Sum(rhs),rhsMax =  -3.22526075013600E-04  1.43544947836004E-01
 cg2d: Sum(rhs),rhsMax =  -3.22441883909688E-04  1.43548014224359E-01
 cg2d: Sum(rhs),rhsMax =  -3.22357124958681E-04  1.43551080529699E-01
 cg2d: Sum(rhs),rhsMax =  -3.22271783351095E-04  1.43554146764076E-01
 cg2d: Sum(rhs),rhsMax =  -3.22185844614635E-04  1.43557212939504E-01
 cg2d: Sum(rhs),rhsMax =  -3.22099294067812E-04  1.43560279067963E-01
 cg2d: Sum(rhs),rhsMax =  -3.22012117526711E-04  1.43563345161394E-01
 cg2d: Sum(rhs),rhsMax =  -3.21924300701988E-04  1.43566411231701E-01
 cg2d: Sum(rhs),rhsMax =  -3.21835829646708E-04  1.43569477290754E-01
 cg2d: Sum(rhs),rhsMax =  -3.21746690314113E-04  1.43572543350383E-01
 cg2d: Sum(rhs),rhsMax =  -3.21656869202184E-04  1.43575609422384E-01
 cg2d: Sum(rhs),rhsMax =  -3.21566352445971E-04  1.43578675518514E-01
 cg2d: Sum(rhs),rhsMax =  -3.21475126918470E-04  1.43581741650497E-01
 cg2d: Sum(rhs),rhsMax =  -3.21383179393215E-04  1.43584807830014E-01
 cg2d: Sum(rhs),rhsMax =  -3.21290496655999E-04  1.43587874068716E-01
 cg2d: Sum(rhs),rhsMax =  -3.21197066014234E-04  1.43590940378212E-01
 cg2d: Sum(rhs),rhsMax =  -3.21102874754744E-04  1.43594006770077E-01
 cg2d: Sum(rhs),rhsMax =  -3.21007910447473E-04  1.43597073255849E-01
 cg2d: Sum(rhs),rhsMax =  -3.20912160854897E-04  1.43600139847028E-01
 cg2d: Sum(rhs),rhsMax =  -3.20815613899263E-04  1.43603206555080E-01
 cg2d: Sum(rhs),rhsMax =  -3.20718257713419E-04  1.43606273391428E-01
 cg2d: Sum(rhs),rhsMax =  -3.20620080683514E-04  1.43609340367466E-01
 cg2d: Sum(rhs),rhsMax =  -3.20521071615037E-04  1.43612407494546E-01
 cg2d: Sum(rhs),rhsMax =  -3.20421219100877E-04  1.43615474783985E-01
 cg2d: Sum(rhs),rhsMax =  -3.20320512501843E-04  1.43618542247061E-01
 cg2d: Sum(rhs),rhsMax =  -3.20218940973655E-04  1.43621609895019E-01
 cg2d: Sum(rhs),rhsMax =  -3.20116494296103E-04  1.43624677739063E-01
 cg2d: Sum(rhs),rhsMax =  -3.20013162321456E-04  1.43627745790364E-01
 cg2d: Sum(rhs),rhsMax =  -3.19908935196852E-04  1.43630814060052E-01
 cg2d: Sum(rhs),rhsMax =  -3.19803803451916E-04  1.43633882559223E-01
 cg2d: Sum(rhs),rhsMax =  -3.19697757734917E-04  1.43636951298937E-01
 cg2d: Sum(rhs),rhsMax =  -3.19590789192588E-04  1.43640020290212E-01
 cg2d: Sum(rhs),rhsMax =  -3.19482889224208E-04  1.43643089544035E-01
 cg2d: Sum(rhs),rhsMax =  -3.19374049563117E-04  1.43646159071352E-01
 cg2d: Sum(rhs),rhsMax =  -3.19264262432196E-04  1.43649228883075E-01
 cg2d: Sum(rhs),rhsMax =  -3.19153520059885E-04  1.43652298990076E-01
 cg2d: Sum(rhs),rhsMax =  -3.19041815326836E-04  1.43655369403193E-01
 cg2d: Sum(rhs),rhsMax =  -3.18929141540733E-04  1.43658440133224E-01
 cg2d: Sum(rhs),rhsMax =  -3.18815492361561E-04  1.43661511190932E-01
 cg2d: Sum(rhs),rhsMax =  -3.18700861693030E-04  1.43664582587044E-01
 cg2d: Sum(rhs),rhsMax =  -3.18585244123167E-04  1.43667654332247E-01
 cg2d: Sum(rhs),rhsMax =  -3.18468634684647E-04  1.43670726437194E-01
 cg2d: Sum(rhs),rhsMax =  -3.18351028782880E-04  1.43673798912498E-01
 cg2d: Sum(rhs),rhsMax =  -3.18232422286077E-04  1.43676871768738E-01
 cg2d: Sum(rhs),rhsMax =  -3.18112811762610E-04  1.43679945016455E-01
 cg2d: Sum(rhs),rhsMax =  -3.17992194271690E-04  1.43683018666151E-01
 cg2d: Sum(rhs),rhsMax =  -3.17870567505324E-04  1.43686092728295E-01
 cg2d: Sum(rhs),rhsMax =  -3.17747929569288E-04  1.43689167213314E-01
 cg2d: Sum(rhs),rhsMax =  -3.17624279432044E-04  1.43692242131604E-01
 cg2d: Sum(rhs),rhsMax =  -3.17499616527301E-04  1.43695317493516E-01
 cg2d: Sum(rhs),rhsMax =  -3.17373941130368E-04  1.43698393309373E-01
(PID.TID 0000.0001)      cg2d_init_res =   1.52182011437348E-03
(PID.TID 0000.0001)      cg2d_iters(min,last) =      -1      75
(PID.TID 0000.0001)      cg2d_last_res =   8.20303212433564E-08
(PID.TID 0000.0001) // =======================================================
(PID.TID 0000.0001) // Begin MONITOR dynamic field statistics
(PID.TID 0000.0001) // =======================================================
(PID.TID 0000.0001) %MON time_tsnumber                =                  3960
(PID.TID 0000.0001) %MON time_secondsf                =   4.7520000000000E+06
(PID.TID 0000.0001) %MON dynstat_eta_max              =   5.6306375171224E-02
(PID.TID 0000.0001) %MON dynstat_eta_min              =  -2.0979441481531E-02
(PID.TID 0000.0001) %MON dynstat_eta_mean             =   2.2794448318058E-07
(PID.TID 0000.0001) %MON dynstat_eta_sd               =   1.5913869099989E-02
(PID.TID 0000.0001) %MON dynstat_eta_del2             =   1.7457251000595E-05
(PID.TID 0000.0001) %MON dynstat_uvel_max             =   2.6048994299280E-02
(PID.TID 0000.0001) %MON dynstat_uvel_min             =  -1.4788053494847E-02
(PID.TID 0000.0001) %MON dynstat_uvel_mean            =   1.9019513919804E-08
(PID.TID 0000.0001) %MON dynstat_uvel_sd              =   6.3451963131839E-03
(PID.TID 0000.0001) %MON dynstat_uvel_del2            =   7.0310261705467E-06
(PID.TID 0000.0001) %MON dynstat_vvel_max             =   8.8177189188666E-02
(PID.TID 0000.0001) %MON dynstat_vvel_min             =  -3.2256271943181E-02
(PID.TID 0000.0001) %MON dynstat_vvel_mean            =  -1.1833956487800E-08
(PID.TID 0000.0001) %MON dynstat_vvel_sd              =   1.5834848362900E-02
(PID.TID 0000.0001) %MON dynstat_vvel_del2            =   6.9309178276377E-05
(PID.TID 0000.0001) %MON dynstat_wvel_max             =   2.0374997455801E-08
(PID.TID 0000.0001) %MON dynstat_wvel_min             =  -1.5100498152897E-08
(PID.TID 0000.0001) %MON dynstat_wvel_mean            =  -5.3598771248491E-22
(PID.TID 0000.0001) %MON dynstat_wvel_sd              =   7.5406430318548E-09
(PID.TID 0000.0001) %MON dynstat_wvel_del2            =   4.0374856026691E-12
(PID.TID 0000.0001) %MON dynstat_theta_max            =   2.0000000000000E+01
(PID.TID 0000.0001) %MON dynstat_theta_min            =   2.0000000000000E+01
(PID.TID 0000.0001) %MON dynstat_theta_mean           =   2.0000000000000E+01
(PID.TID 0000.0001) %MON dynstat_theta_sd             =   0.0000000000000E+00
(PID.TID 0000.0001) %MON dynstat_theta_del2           =   0.0000000000000E+00
(PID.TID 0000.0001) %MON dynstat_salt_max             =   3.0000000000000E+01
(PID.TID 0000.0001) %MON dynstat_salt_min             =   3.0000000000000E+01
(PID.TID 0000.0001) %MON dynstat_salt_mean            =   3.0000000000000E+01
(PID.TID 0000.0001) %MON dynstat_salt_sd              =   0.0000000000000E+00
(PID.TID 0000.0001) %MON dynstat_salt_del2            =   0.0000000000000E+00
(PID.TID 0000.0001) %MON trAdv_CFL_u_max              =   1.5628441572388E-03
(PID.TID 0000.0001) %MON trAdv_CFL_v_max              =   5.2906313570967E-03
(PID.TID 0000.0001) %MON trAdv_CFL_w_max              =   4.8887803106569E-09
(PID.TID 0000.0001) %MON advcfl_uvel_max              =   1.5629396579568E-03
(PID.TID 0000.0001) %MON advcfl_vvel_max              =   5.2906313513200E-03
(PID.TID 0000.0001) %MON advcfl_wvel_max              =   9.7799987787846E-09
(PID.TID 0000.0001) %MON advcfl_W_hf_max              =   0.0000000000000E+00
(PID.TID 0000.0001) %MON pe_b_mean                    =   2.4843945641766E-07
(PID.TID 0000.0001) %MON ke_max                       =   3.8838578843723E-03
(PID.TID 0000.0001) %MON ke_mean                      =   1.4307693664028E-04
(PID.TID 0000.0001) %MON ke_vol                       =   7.2000000000000E+15
(PID.TID 0000.0001) %MON vort_r_min                   =  -1.3807982474626E-06
(PID.TID 0000.0001) %MON vort_r_max                   =   2.3571727138235E-06
(PID.TID 0000.0001) %MON vort_a_mean                  =   1.0600000000000E-04
(PID.TID 0000.0001) %MON vort_a_sd                    =   3.5359147534201E-06
(PID.TID 0000.0001) %MON vort_p_mean                  =   1.1130000000000E-04
(PID.TID 0000.0001) %MON vort_p_sd                    =   4.1150027346685E-05
(PID.TID 0000.0001) %MON surfExpan_theta_mean         =  -1.0721618654625E-20
(PID.TID 0000.0001) %MON surfExpan_salt_mean          =  -1.6083692402604E-20
(PID.TID 0000.0001) // =======================================================
(PID.TID 0000.0001) // End MONITOR dynamic field statistics
(PID.TID 0000.0001) // =======================================================
 cg2d: Sum(rhs),rhsMax =  -3.17247254105990E-04  1.43701469589455E-01
 cg2d: Sum(rhs),rhsMax =  -3.17119557085373E-04  1.43704546344006E-01
 cg2d: Sum(rhs),rhsMax =  -3.16990852531958E-04  1.43707623583234E-01
 cg2d: Sum(rhs),rhsMax =  -3.16861143523113E-04  1.43710701317309E-01
 cg2d: Sum(rhs),rhsMax =  -3.16730434079638E-04  1.43713779556366E-01
 cg2d: Sum(rhs),rhsMax =  -3.16598729180572E-04  1.43716858310501E-01
 cg2d: Sum(rhs),rhsMax =  -3.16466034140715E-04  1.43719937589772E-01
 cg2d: Sum(rhs),rhsMax =  -3.16332355592611E-04  1.43723017404203E-01
 cg2d: Sum(rhs),rhsMax =  -3.16197700702821E-04  1.43726097763778E-01
 cg2d: Sum(rhs),rhsMax =  -3.16062077493656E-04  1.43729178678448E-01
 cg2d: Sum(rhs),rhsMax =  -3.15925494722575E-04  1.43732260158119E-01
 cg2d: Sum(rhs),rhsMax =  -3.15787961931260E-04  1.43735342212669E-01
 cg2d: Sum(rhs),rhsMax =  -3.15649489195829E-04  1.43738424851933E-01
 cg2d: Sum(rhs),rhsMax =  -3.15510086952481E-04  1.43741508085710E-01
 cg2d: Sum(rhs),rhsMax =  -3.15369766342612E-04  1.43744591923763E-01
 cg2d: Sum(rhs),rhsMax =  -3.15228538508229E-04  1.43747676375816E-01
 cg2d: Sum(rhs),rhsMax =  -3.15086414639229E-04  1.43750761451556E-01
 cg2d: Sum(rhs),rhsMax =  -3.14943405742586E-04  1.43753847160632E-01
 cg2d: Sum(rhs),rhsMax =  -3.14799522358019E-04  1.43756933512656E-01
 cg2d: Sum(rhs),rhsMax =  -3.14654774283603E-04  1.43760020517202E-01
 cg2d: Sum(rhs),rhsMax =  -3.14509170031576E-04  1.43763108183806E-01
 cg2d: Sum(rhs),rhsMax =  -3.14362716657818E-04  1.43766196521967E-01
 cg2d: Sum(rhs),rhsMax =  -3.14215419438943E-04  1.43769285541143E-01
 cg2d: Sum(rhs),rhsMax =  -3.14067281122881E-04  1.43772375250758E-01
 cg2d: Sum(rhs),rhsMax =  -3.13918301777344E-04  1.43775465660195E-01
 cg2d: Sum(rhs),rhsMax =  -3.13768478370574E-04  1.43778556778800E-01
 cg2d: Sum(rhs),rhsMax =  -3.13617804210131E-04  1.43781648615883E-01
 cg2d: Sum(rhs),rhsMax =  -3.13466269012499E-04  1.43784741180711E-01
 cg2d: Sum(rhs),rhsMax =  -3.13313858236035E-04  1.43787834482518E-01
 cg2d: Sum(rhs),rhsMax =  -3.13160553177886E-04  1.43790928530500E-01
 cg2d: Sum(rhs),rhsMax =  -3.13006331237190E-04  1.43794023333815E-01
 cg2d: Sum(rhs),rhsMax =  -3.12851165313476E-04  1.43797118901582E-01
 cg2d: Sum(rhs),rhsMax =  -3.12695024789365E-04  1.43800215242887E-01
 cg2d: Sum(rhs),rhsMax =  -3.12537875639731E-04  1.43803312366777E-01
 cg2d: Sum(rhs),rhsMax =  -3.12379680736373E-04  1.43806410282264E-01
 cg2d: Sum(rhs),rhsMax =  -3.12220400709894E-04  1.43809508998323E-01
 cg2d: Sum(rhs),rhsMax =  -3.12059994471983E-04  1.43812608523895E-01
 cg2d: Sum(rhs),rhsMax =  -3.11898420088213E-04  1.43815708867883E-01
 cg2d: Sum(rhs),rhsMax =  -3.11735635068163E-04  1.43818810039153E-01
 cg2d: Sum(rhs),rhsMax =  -3.11571597616773E-04  1.43821912046538E-01
 cg2d: Sum(rhs),rhsMax =  -3.11406266834835E-04  1.43825014898832E-01
 cg2d: Sum(rhs),rhsMax =  -3.11239603426561E-04  1.43828118604795E-01
 cg2d: Sum(rhs),rhsMax =  -3.11071570057192E-04  1.43831223173146E-01
 cg2d: Sum(rhs),rhsMax =  -3.10902131904189E-04  1.43834328612572E-01
 cg2d: Sum(rhs),rhsMax =  -3.10731256829927E-04  1.43837434931719E-01
 cg2d: Sum(rhs),rhsMax =  -3.10558915501938E-04  1.43840542139196E-01
 cg2d: Sum(rhs),rhsMax =  -3.10385081395104E-04  1.43843650243576E-01
 cg2d: Sum(rhs),rhsMax =  -3.10209730865980E-04  1.43846759253393E-01
 cg2d: Sum(rhs),rhsMax =  -3.10032843257921E-04  1.43849869177144E-01
 cg2d: Sum(rhs),rhsMax =  -3.09854400262100E-04  1.43852980023286E-01
 cg2d: Sum(rhs),rhsMax =  -3.09674386385375E-04  1.43856091800241E-01
 cg2d: Sum(rhs),rhsMax =  -3.09492788293619E-04  1.43859204516390E-01
 cg2d: Sum(rhs),rhsMax =  -3.09309594792255E-04  1.43862318180077E-01
 cg2d: Sum(rhs),rhsMax =  -3.09124796435165E-04  1.43865432799609E-01
 cg2d: Sum(rhs),rhsMax =  -3.08938385672795E-04  1.43868548383254E-01
 cg2d: Sum(rhs),rhsMax =  -3.08750356170231E-04  1.43871664939242E-01
 cg2d: Sum(rhs),rhsMax =  -3.08560702781725E-04  1.43874782475767E-01
 cg2d: Sum(rhs),rhsMax =  -3.08369421599885E-04  1.43877901000981E-01
 cg2d: Sum(rhs),rhsMax =  -3.08176509472703E-04  1.43881020523002E-01
 cg2d: Sum(rhs),rhsMax =  -3.07981963932074E-04  1.43884141049909E-01
 cg2d: Sum(rhs),rhsMax =  -3.07785782995654E-04  1.43887262589744E-01
 cg2d: Sum(rhs),rhsMax =  -3.07587965417282E-04  1.43890385150511E-01
 cg2d: Sum(rhs),rhsMax =  -3.07388509788089E-04  1.43893508740174E-01
 cg2d: Sum(rhs),rhsMax =  -3.07187415227662E-04  1.43896633366662E-01
 cg2d: Sum(rhs),rhsMax =  -3.06984680783357E-04  1.43899759037867E-01
 cg2d: Sum(rhs),rhsMax =  -3.06780305785592E-04  1.43902885761642E-01
 cg2d: Sum(rhs),rhsMax =  -3.06574289311889E-04  1.43906013545803E-01
 cg2d: Sum(rhs),rhsMax =  -3.06366630473570E-04  1.43909142398128E-01
 cg2d: Sum(rhs),rhsMax =  -3.06157328234929E-04  1.43912272326357E-01
 cg2d: Sum(rhs),rhsMax =  -3.05946381399345E-04  1.43915403338195E-01
 cg2d: Sum(rhs),rhsMax =  -3.05733788579229E-04  1.43918535441308E-01
 cg2d: Sum(rhs),rhsMax =  -3.05519548072716E-04  1.43921668643323E-01
(PID.TID 0000.0001)      cg2d_init_res =   1.50973192719621E-03
(PID.TID 0000.0001)      cg2d_iters(min,last) =      -1      75
(PID.TID 0000.0001)      cg2d_last_res =   7.63971129047507E-08
(PID.TID 0000.0001) // =======================================================
(PID.TID 0000.0001) // Begin MONITOR dynamic field statistics
(PID.TID 0000.0001) // =======================================================
(PID.TID 0000.0001) %MON time_tsnumber                =                  4032
(PID.TID 0000.0001) %MON time_secondsf                =   4.8384000000000E+06
(PID.TID 0000.0001) %MON dynstat_eta_max              =   5.5625585999667E-02
(PID.TID 0000.0001) %MON dynstat_eta_min              =  -2.1290861338424E-02
(PID.TID 0000.0001) %MON dynstat_eta_mean             =   2.1970384416407E-07
(PID.TID 0000.0001) %MON dynstat_eta_sd               =   1.6009168561236E-02
(PID.TID 0000.0001) %MON dynstat_eta_del2             =   1.7563353937480E-05
(PID.TID 0000.0001) %MON dynstat_uvel_max             =   2.6166423196410E-02
(PID.TID 0000.0001) %MON dynstat_uvel_min             =  -1.4658457367927E-02
(PID.TID 0000.0001) %MON dynstat_uvel_mean            =  -1.3983532647211E-08
(PID.TID 0000.0001) %MON dynstat_uvel_sd              =   6.4190391556025E-03
(PID.TID 0000.0001) %MON dynstat_uvel_del2            =   7.1126824248518E-06
(PID.TID 0000.0001) %MON dynstat_vvel_max             =   8.8172981062288E-02
(PID.TID 0000.0001) %MON dynstat_vvel_min             =  -3.2419162349795E-02
(PID.TID 0000.0001) %MON dynstat_vvel_mean            =  -1.2917309415720E-08
(PID.TID 0000.0001) %MON dynstat_vvel_sd              =   1.5819828870190E-02
(PID.TID 0000.0001) %MON dynstat_vvel_del2            =   6.9629036847831E-05
(PID.TID 0000.0001) %MON dynstat_wvel_max             =   2.0775966003130E-08
(PID.TID 0000.0001) %MON dynstat_wvel_min             =  -1.3956090271240E-08
(PID.TID 0000.0001) %MON dynstat_wvel_mean            =  -1.7833489588763E-21
(PID.TID 0000.0001) %MON dynstat_wvel_sd              =   7.5138381526265E-09
(PID.TID 0000.0001) %MON dynstat_wvel_del2            =   3.9989562874987E-12
(PID.TID 0000.0001) %MON dynstat_theta_max            =   2.0000000000000E+01
(PID.TID 0000.0001) %MON dynstat_theta_min            =   2.0000000000000E+01
(PID.TID 0000.0001) %MON dynstat_theta_mean           =   2.0000000000000E+01
(PID.TID 0000.0001) %MON dynstat_theta_sd             =   0.0000000000000E+00
(PID.TID 0000.0001) %MON dynstat_theta_del2           =   0.0000000000000E+00
(PID.TID 0000.0001) %MON dynstat_salt_max             =   3.0000000000000E+01
(PID.TID 0000.0001) %MON dynstat_salt_min             =   3.0000000000000E+01
(PID.TID 0000.0001) %MON dynstat_salt_mean            =   3.0000000000000E+01
(PID.TID 0000.0001) %MON dynstat_salt_sd              =   0.0000000000000E+00
(PID.TID 0000.0001) %MON dynstat_salt_del2            =   0.0000000000000E+00
(PID.TID 0000.0001) %MON trAdv_CFL_u_max              =   1.5698851311549E-03
(PID.TID 0000.0001) %MON trAdv_CFL_v_max              =   5.2903852670252E-03
(PID.TID 0000.0001) %MON trAdv_CFL_w_max              =   4.9849633067613E-09
(PID.TID 0000.0001) %MON advcfl_uvel_max              =   1.5699853917846E-03
(PID.TID 0000.0001) %MON advcfl_vvel_max              =   5.2903788637373E-03
(PID.TID 0000.0001) %MON advcfl_wvel_max              =   9.9724636815023E-09
(PID.TID 0000.0001) %MON advcfl_W_hf_max              =   0.0000000000000E+00
(PID.TID 0000.0001) %MON pe_b_mean                    =   2.5142390198699E-07
(PID.TID 0000.0001) %MON ke_max                       =   3.8858245919181E-03
(PID.TID 0000.0001) %MON ke_mean                      =   1.4330659917211E-04
(PID.TID 0000.0001) %MON ke_vol                       =   7.2000000000000E+15
(PID.TID 0000.0001) %MON vort_r_min                   =  -1.3948572730740E-06
(PID.TID 0000.0001) %MON vort_r_max                   =   2.3605778439903E-06
(PID.TID 0000.0001) %MON vort_a_mean                  =   1.0600000000000E-04
(PID.TID 0000.0001) %MON vort_a_sd                    =   3.5360406597146E-06
(PID.TID 0000.0001) %MON vort_p_mean                  =   1.1130000000000E-04
(PID.TID 0000.0001) %MON vort_p_sd                    =   4.1150381663939E-05
(PID.TID 0000.0001) %MON surfExpan_theta_mean         =  -3.5670192725471E-20
(PID.TID 0000.0001) %MON surfExpan_salt_mean          =  -5.3506552275293E-20
(PID.TID 0000.0001) // =======================================================
(PID.TID 0000.0001) // End MONITOR dynamic field statistics
(PID.TID 0000.0001) // =======================================================
 cg2d: Sum(rhs),rhsMax =  -3.05303658085127E-04  1.43924802951833E-01
 cg2d: Sum(rhs),rhsMax =  -3.05041015851023E-04  1.43927938555555E-01
 cg2d: Sum(rhs),rhsMax =  -3.04776684891813E-04  1.43931075096804E-01
 cg2d: Sum(rhs),rhsMax =  -3.04510717552262E-04  1.43934212772326E-01
 cg2d: Sum(rhs),rhsMax =  -3.04243117816936E-04  1.43937351588577E-01
 cg2d: Sum(rhs),rhsMax =  -3.03973895233832E-04  1.43940491547598E-01
 cg2d: Sum(rhs),rhsMax =  -3.03703047233370E-04  1.43943632655684E-01
 cg2d: Sum(rhs),rhsMax =  -3.03430562755122E-04  1.43946774920886E-01
 cg2d: Sum(rhs),rhsMax =  -3.03156429196760E-04  1.43949918351472E-01
 cg2d: Sum(rhs),rhsMax =  -3.02880636022404E-04  1.43953062955332E-01
 cg2d: Sum(rhs),rhsMax =  -3.02603175715676E-04  1.43956208739939E-01
 cg2d: Sum(rhs),rhsMax =  -3.02324042386217E-04  1.43959355712482E-01
 cg2d: Sum(rhs),rhsMax =  -3.02043230047827E-04  1.43962503879991E-01
 cg2d: Sum(rhs),rhsMax =  -3.01760731533584E-04  1.43965653249432E-01
 cg2d: Sum(rhs),rhsMax =  -3.01476538390620E-04  1.43968803827750E-01
 cg2d: Sum(rhs),rhsMax =  -3.01190641148728E-04  1.43971955621899E-01
 cg2d: Sum(rhs),rhsMax =  -3.00903030034588E-04  1.43975108638845E-01
 cg2d: Sum(rhs),rhsMax =  -3.00613694933566E-04  1.43978262885551E-01
 cg2d: Sum(rhs),rhsMax =  -3.00322625644027E-04  1.43981418368961E-01
 cg2d: Sum(rhs),rhsMax =  -3.00029811829531E-04  1.43984575095986E-01
 cg2d: Sum(rhs),rhsMax =  -2.99735242830553E-04  1.43987733073493E-01
 cg2d: Sum(rhs),rhsMax =  -2.99438907643740E-04  1.43990892308306E-01
 cg2d: Sum(rhs),rhsMax =  -2.99140794780889E-04  1.43994052807202E-01
 cg2d: Sum(rhs),rhsMax =  -2.98840892712308E-04  1.43997214576910E-01
 cg2d: Sum(rhs),rhsMax =  -2.98539189366717E-04  1.44000377624118E-01
 cg2d: Sum(rhs),rhsMax =  -2.98235672565393E-04  1.44003541955472E-01
 cg2d: Sum(rhs),rhsMax =  -2.97930329884484E-04  1.44006707577581E-01
 cg2d: Sum(rhs),rhsMax =  -2.97623148653184E-04  1.44009874497016E-01
 cg2d: Sum(rhs),rhsMax =  -2.97314115909332E-04  1.44013042720318E-01
 cg2d: Sum(rhs),rhsMax =  -2.97003218733143E-04  1.44016212253994E-01
 cg2d: Sum(rhs),rhsMax =  -2.96690443853620E-04  1.44019383104515E-01
 cg2d: Sum(rhs),rhsMax =  -2.96375777755653E-04  1.44022555278316E-01
 cg2d: Sum(rhs),rhsMax =  -2.96059206912439E-04  1.44025728781795E-01
 cg2d: Sum(rhs),rhsMax =  -2.95740717409575E-04  1.44028903621309E-01
 cg2d: Sum(rhs),rhsMax =  -2.95420295600550E-04  1.44032079803180E-01
 cg2d: Sum(rhs),rhsMax =  -2.95097927300594E-04  1.44035257333685E-01
 cg2d: Sum(rhs),rhsMax =  -2.94773598473510E-04  1.44038436219068E-01
 cg2d: Sum(rhs),rhsMax =  -2.94447294912626E-04  1.44041616465532E-01
 cg2d: Sum(rhs),rhsMax =  -2.94119002313737E-04  1.44044798079246E-01
 cg2d: Sum(rhs),rhsMax =  -2.93788706243419E-04  1.44047981066340E-01
 cg2d: Sum(rhs),rhsMax =  -2.93456392270983E-04  1.44051165432909E-01
 cg2d: Sum(rhs),rhsMax =  -2.93122045895196E-04  1.44054351185010E-01
 cg2d: Sum(rhs),rhsMax =  -2.92785652599958E-04  1.44057538328664E-01
 cg2d: Sum(rhs),rhsMax =  -2.92447197831521E-04  1.44060726869850E-01
 cg2d: Sum(rhs),rhsMax =  -2.92106666879512E-04  1.44063916814515E-01
 cg2d: Sum(rhs),rhsMax =  -2.91764045280202E-04  1.44067108168566E-01
 cg2d: Sum(rhs),rhsMax =  -2.91419318321652E-04  1.44070300937873E-01
 cg2d: Sum(rhs),rhsMax =  -2.91072471441429E-04  1.44073495128267E-01
 cg2d: Sum(rhs),rhsMax =  -2.90723489955373E-04  1.44076690745543E-01
 cg2d: Sum(rhs),rhsMax =  -2.90372359440853E-04  1.44079887795457E-01
 cg2d: Sum(rhs),rhsMax =  -2.90019065317938E-04  1.44083086283732E-01
 cg2d: Sum(rhs),rhsMax =  -2.89663593041090E-04  1.44086286216048E-01
 cg2d: Sum(rhs),rhsMax =  -2.89305928353157E-04  1.44089487598052E-01
 cg2d: Sum(rhs),rhsMax =  -2.88946056651438E-04  1.44092690435351E-01
 cg2d: Sum(rhs),rhsMax =  -2.88583963706793E-04  1.44095894733516E-01
 cg2d: Sum(rhs),rhsMax =  -2.88219635306878E-04  1.44099100498082E-01
 cg2d: Sum(rhs),rhsMax =  -2.87853057252611E-04  1.44102307734543E-01
 cg2d: Sum(rhs),rhsMax =  -2.87484215536047E-04  1.44105516448357E-01
 cg2d: Sum(rhs),rhsMax =  -2.87113096189793E-04  1.44108726644948E-01
 cg2d: Sum(rhs),rhsMax =  -2.86739685236440E-04  1.44111938329699E-01
 cg2d: Sum(rhs),rhsMax =  -2.86363969000933E-04  1.44115151507955E-01
 cg2d: Sum(rhs),rhsMax =  -2.85985933866313E-04  1.44118366185026E-01
 cg2d: Sum(rhs),rhsMax =  -2.85605566246534E-04  1.44121582366186E-01
 cg2d: Sum(rhs),rhsMax =  -2.85222852759706E-04  1.44124800056667E-01
 cg2d: Sum(rhs),rhsMax =  -2.84837780165146E-04  1.44128019261669E-01
 cg2d: Sum(rhs),rhsMax =  -2.84450335216296E-04  1.44131239986350E-01
 cg2d: Sum(rhs),rhsMax =  -2.84060505032694E-04  1.44134462235834E-01
 cg2d: Sum(rhs),rhsMax =  -2.83668276697515E-04  1.44137686015208E-01
 cg2d: Sum(rhs),rhsMax =  -2.83273637620559E-04  1.44140911329518E-01
 cg2d: Sum(rhs),rhsMax =  -2.82876575219338E-04  1.44144138183777E-01
 cg2d: Sum(rhs),rhsMax =  -2.82477076969903E-04  1.44147366582957E-01
 cg2d: Sum(rhs),rhsMax =  -2.82075130737809E-04  1.44150596531995E-01
(PID.TID 0000.0001)      cg2d_init_res =   1.49741380291922E-03
(PID.TID 0000.0001)      cg2d_iters(min,last) =      -1      74
(PID.TID 0000.0001)      cg2d_last_res =   9.99604863182074E-08
(PID.TID 0000.0001) // =======================================================
(PID.TID 0000.0001) // Begin MONITOR dynamic field statistics
(PID.TID 0000.0001) // =======================================================
(PID.TID 0000.0001) %MON time_tsnumber                =                  4104
(PID.TID 0000.0001) %MON time_secondsf                =   4.9248000000000E+06
(PID.TID 0000.0001) %MON dynstat_eta_max              =   5.5006053021908E-02
(PID.TID 0000.0001) %MON dynstat_eta_min              =  -2.1601409204385E-02
(PID.TID 0000.0001) %MON dynstat_eta_mean             =   2.0301956587167E-07
(PID.TID 0000.0001) %MON dynstat_eta_sd               =   1.6140306885355E-02
(PID.TID 0000.0001) %MON dynstat_eta_del2             =   1.7661743338051E-05
(PID.TID 0000.0001) %MON dynstat_uvel_max             =   2.6289940293923E-02
(PID.TID 0000.0001) %MON dynstat_uvel_min             =  -1.4542595949391E-02
(PID.TID 0000.0001) %MON dynstat_uvel_mean            =  -4.6420371790073E-08
(PID.TID 0000.0001) %MON dynstat_uvel_sd              =   6.4982211525405E-03
(PID.TID 0000.0001) %MON dynstat_uvel_del2            =   7.1997665943297E-06
(PID.TID 0000.0001) %MON dynstat_vvel_max             =   8.8172005531130E-02
(PID.TID 0000.0001) %MON dynstat_vvel_min             =  -3.2500485940795E-02
(PID.TID 0000.0001) %MON dynstat_vvel_mean            =  -1.3781140076877E-08
(PID.TID 0000.0001) %MON dynstat_vvel_sd              =   1.5806216524974E-02
(PID.TID 0000.0001) %MON dynstat_vvel_del2            =   6.9937515738004E-05
(PID.TID 0000.0001) %MON dynstat_wvel_max             =   2.1081778249354E-08
(PID.TID 0000.0001) %MON dynstat_wvel_min             =  -1.2881440405035E-08
(PID.TID 0000.0001) %MON dynstat_wvel_mean            =   1.0877120833660E-21
(PID.TID 0000.0001) %MON dynstat_wvel_sd              =   7.4931060266869E-09
(PID.TID 0000.0001) %MON dynstat_wvel_del2            =   3.9628987847906E-12
(PID.TID 0000.0001) %MON dynstat_theta_max            =   2.0000000000000E+01
(PID.TID 0000.0001) %MON dynstat_theta_min            =   2.0000000000000E+01
(PID.TID 0000.0001) %MON dynstat_theta_mean           =   2.0000000000000E+01
(PID.TID 0000.0001) %MON dynstat_theta_sd             =   0.0000000000000E+00
(PID.TID 0000.0001) %MON dynstat_theta_del2           =   0.0000000000000E+00
(PID.TID 0000.0001) %MON dynstat_salt_max             =   3.0000000000000E+01
(PID.TID 0000.0001) %MON dynstat_salt_min             =   3.0000000000000E+01
(PID.TID 0000.0001) %MON dynstat_salt_mean            =   3.0000000000000E+01
(PID.TID 0000.0001) %MON dynstat_salt_sd              =   0.0000000000000E+00
(PID.TID 0000.0001) %MON dynstat_salt_del2            =   0.0000000000000E+00
(PID.TID 0000.0001) %MON trAdv_CFL_u_max              =   1.5772908068180E-03
(PID.TID 0000.0001) %MON trAdv_CFL_v_max              =   5.2902848963360E-03
(PID.TID 0000.0001) %MON trAdv_CFL_w_max              =   5.0582930442179E-09
(PID.TID 0000.0001) %MON advcfl_uvel_max              =   1.5773964176354E-03
(PID.TID 0000.0001) %MON advcfl_vvel_max              =   5.2903203318678E-03
(PID.TID 0000.0001) %MON advcfl_wvel_max              =   1.0119253559690E-08
(PID.TID 0000.0001) %MON advcfl_W_hf_max              =   0.0000000000000E+00
(PID.TID 0000.0001) %MON pe_b_mean                    =   2.5555982577316E-07
(PID.TID 0000.0001) %MON ke_max                       =   3.8872513712468E-03
(PID.TID 0000.0001) %MON ke_mean                      =   1.4359781816715E-04
(PID.TID 0000.0001) %MON ke_vol                       =   7.2000000000000E+15
(PID.TID 0000.0001) %MON vort_r_min                   =  -1.4087985160947E-06
(PID.TID 0000.0001) %MON vort_r_max                   =   2.3643086645171E-06
(PID.TID 0000.0001) %MON vort_a_mean                  =   1.0600000000000E-04
(PID.TID 0000.0001) %MON vort_a_sd                    =   3.5361631674313E-06
(PID.TID 0000.0001) %MON vort_p_mean                  =   1.1130000000000E-04
(PID.TID 0000.0001) %MON vort_p_sd                    =   4.1150705705833E-05
(PID.TID 0000.0001) %MON surfExpan_theta_mean         =   2.1765937200750E-20
(PID.TID 0000.0001) %MON surfExpan_salt_mean          =   3.2648274207582E-20
(PID.TID 0000.0001) // =======================================================
(PID.TID 0000.0001) // End MONITOR dynamic field statistics
(PID.TID 0000.0001) // =======================================================
 cg2d: Sum(rhs),rhsMax =  -2.81670724459410E-04  1.44153828035793E-01
 cg2d: Sum(rhs),rhsMax =  -2.81315349687332E-04  1.44157060900134E-01
 cg2d: Sum(rhs),rhsMax =  -2.80957843602035E-04  1.44160295525334E-01
 cg2d: Sum(rhs),rhsMax =  -2.80598127962536E-04  1.44163531717042E-01
 cg2d: Sum(rhs),rhsMax =  -2.80236161852848E-04  1.44166769480554E-01
 cg2d: Sum(rhs),rhsMax =  -2.79871912206207E-04  1.44170008823267E-01
 cg2d: Sum(rhs),rhsMax =  -2.79505369851709E-04  1.44173249750557E-01
 cg2d: Sum(rhs),rhsMax =  -2.79136538216041E-04  1.44176492266939E-01
 cg2d: Sum(rhs),rhsMax =  -2.78765422378232E-04  1.44179736376563E-01
 cg2d: Sum(rhs),rhsMax =  -2.78392022188362E-04  1.44182982083479E-01
 cg2d: Sum(rhs),rhsMax =  -2.78016331644552E-04  1.44186229391859E-01
 cg2d: Sum(rhs),rhsMax =  -2.77638341827435E-04  1.44189478306076E-01
 cg2d: Sum(rhs),rhsMax =  -2.77258043180410E-04  1.44192728830650E-01
 cg2d: Sum(rhs),rhsMax =  -2.76875427767702E-04  1.44195980970130E-01
 cg2d: Sum(rhs),rhsMax =  -2.76490489223269E-04  1.44199234729014E-01
 cg2d: Sum(rhs),rhsMax =  -2.76103222128921E-04  1.44202490111701E-01
 cg2d: Sum(rhs),rhsMax =  -2.75713621620573E-04  1.44205747122506E-01
 cg2d: Sum(rhs),rhsMax =  -2.75321682508708E-04  1.44209005765681E-01
 cg2d: Sum(rhs),rhsMax =  -2.74927399370930E-04  1.44212266045436E-01
 cg2d: Sum(rhs),rhsMax =  -2.74530766750962E-04  1.44215527965952E-01
 cg2d: Sum(rhs),rhsMax =  -2.74131779243150E-04  1.44218791531375E-01
 cg2d: Sum(rhs),rhsMax =  -2.73730431643270E-04  1.44222056745819E-01
 cg2d: Sum(rhs),rhsMax =  -2.73326718935982E-04  1.44225323613363E-01
 cg2d: Sum(rhs),rhsMax =  -2.72920636572672E-04  1.44228592138050E-01
 cg2d: Sum(rhs),rhsMax =  -2.72511379214339E-04  1.44232286071082E-01
 cg2d: Sum(rhs),rhsMax =  -2.72098597277796E-04  1.44236590362182E-01
 cg2d: Sum(rhs),rhsMax =  -2.71683438365959E-04  1.44240896246748E-01
 cg2d: Sum(rhs),rhsMax =  -2.71265898508074E-04  1.44245203727991E-01
 cg2d: Sum(rhs),rhsMax =  -2.70845973543081E-04  1.44249512809081E-01
 cg2d: Sum(rhs),rhsMax =  -2.70423659752853E-04  1.44253823493151E-01
 cg2d: Sum(rhs),rhsMax =  -2.69998953377181E-04  1.44258135783297E-01
 cg2d: Sum(rhs),rhsMax =  -2.69571850813998E-04  1.44262449682576E-01
 cg2d: Sum(rhs),rhsMax =  -2.69142348670186E-04  1.44266765194006E-01
 cg2d: Sum(rhs),rhsMax =  -2.68710443679462E-04  1.44271082320573E-01
 cg2d: Sum(rhs),rhsMax =  -2.68276132716586E-04  1.44275401065226E-01
 cg2d: Sum(rhs),rhsMax =  -2.67839412679623E-04  1.44279721430875E-01
 cg2d: Sum(rhs),rhsMax =  -2.67400280774335E-04  1.44284043420400E-01
 cg2d: Sum(rhs),rhsMax =  -2.66958734209236E-04  1.44288367036641E-01
 cg2d: Sum(rhs),rhsMax =  -2.66514770412028E-04  1.44292692282401E-01
 cg2d: Sum(rhs),rhsMax =  -2.66068386883090E-04  1.44297019160448E-01
 cg2d: Sum(rhs),rhsMax =  -2.65619581365607E-04  1.44301347673512E-01
 cg2d: Sum(rhs),rhsMax =  -2.65168351556018E-04  1.44305677824287E-01
 cg2d: Sum(rhs),rhsMax =  -2.64714695460009E-04  1.44310009615431E-01
 cg2d: Sum(rhs),rhsMax =  -2.64258611048160E-04  1.44314343049563E-01
 cg2d: Sum(rhs),rhsMax =  -2.63800096514264E-04  1.44318678129270E-01
 cg2d: Sum(rhs),rhsMax =  -2.63339150211473E-04  1.44323014857097E-01
 cg2d: Sum(rhs),rhsMax =  -2.62875770509311E-04  1.44327353235559E-01
 cg2d: Sum(rhs),rhsMax =  -2.62409955965569E-04  1.44331693267129E-01
 cg2d: Sum(rhs),rhsMax =  -2.61941705213851E-04  1.44336034954250E-01
 cg2d: Sum(rhs),rhsMax =  -2.61471017046499E-04  1.44340378299320E-01
 cg2d: Sum(rhs),rhsMax =  -2.60997890426898E-04  1.44344723304710E-01
 cg2d: Sum(rhs),rhsMax =  -2.60522324380892E-04  1.44349069972748E-01
 cg2d: Sum(rhs),rhsMax =  -2.60044318071105E-04  1.44353418305728E-01
 cg2d: Sum(rhs),rhsMax =  -2.59563870671038E-04  1.44357768305907E-01
 cg2d: Sum(rhs),rhsMax =  -2.59080981544359E-04  1.44362119975508E-01
 cg2d: Sum(rhs),rhsMax =  -2.58595650189999E-04  1.44366473316716E-01
 cg2d: Sum(rhs),rhsMax =  -2.58107876190087E-04  1.44370828331678E-01
 cg2d: Sum(rhs),rhsMax =  -2.57617659334621E-04  1.44375185022508E-01
 cg2d: Sum(rhs),rhsMax =  -2.57124999367886E-04  1.44379543391283E-01
 cg2d: Sum(rhs),rhsMax =  -2.56629896183371E-04  1.44383903440040E-01
 cg2d: Sum(rhs),rhsMax =  -2.56132349726317E-04  1.44388265170787E-01
 cg2d: Sum(rhs),rhsMax =  -2.55632360184318E-04  1.44392628585489E-01
 cg2d: Sum(rhs),rhsMax =  -2.55129927815193E-04  1.44396993686079E-01
 cg2d: Sum(rhs),rhsMax =  -2.54625052917561E-04  1.44401360474451E-01
 cg2d: Sum(rhs),rhsMax =  -2.54117735909033E-04  1.44405728952466E-01
 cg2d: Sum(rhs),rhsMax =  -2.53607977319231E-04  1.44410099121947E-01
 cg2d: Sum(rhs),rhsMax =  -2.53095777726439E-04  1.44414470984680E-01
 cg2d: Sum(rhs),rhsMax =  -2.52581137878543E-04  1.44418844542417E-01
 cg2d: Sum(rhs),rhsMax =  -2.52064058487939E-04  1.44423219796872E-01
 cg2d: Sum(rhs),rhsMax =  -2.51544540626007E-04  1.44427596749724E-01
 cg2d: Sum(rhs),rhsMax =  -2.51022585074081E-04  1.44431975402616E-01
 cg2d: Sum(rhs),rhsMax =  -2.50498193104257E-04  1.44436355757155E-01
(PID.TID 0000.0001)      cg2d_init_res =   1.48427019389682E-03
(PID.TID 0000.0001)      cg2d_iters(min,last) =      -1      75
(PID.TID 0000.0001)      cg2d_last_res =   9.90168643758977E-08
(PID.TID 0000.0001) // =======================================================
(PID.TID 0000.0001) // Begin MONITOR dynamic field statistics
(PID.TID 0000.0001) // =======================================================
(PID.TID 0000.0001) %MON time_tsnumber                =                  4176
(PID.TID 0000.0001) %MON time_secondsf                =   5.0112000000000E+06
(PID.TID 0000.0001) %MON dynstat_eta_max              =   5.4423319022698E-02
(PID.TID 0000.0001) %MON dynstat_eta_min              =  -2.1905613208684E-02
(PID.TID 0000.0001) %MON dynstat_eta_mean             =   1.8053024242620E-07
(PID.TID 0000.0001) %MON dynstat_eta_sd               =   1.6303587918221E-02
(PID.TID 0000.0001) %MON dynstat_eta_del2             =   1.7753006412695E-05
(PID.TID 0000.0001) %MON dynstat_uvel_max             =   2.6421583219552E-02
(PID.TID 0000.0001) %MON dynstat_uvel_min             =  -1.4441289681063E-02
(PID.TID 0000.0001) %MON dynstat_uvel_mean            =  -7.7811582136812E-08
(PID.TID 0000.0001) %MON dynstat_uvel_sd              =   6.5811631603041E-03
(PID.TID 0000.0001) %MON dynstat_uvel_del2            =   7.2908735159018E-06
(PID.TID 0000.0001) %MON dynstat_vvel_max             =   8.8213110272832E-02
(PID.TID 0000.0001) %MON dynstat_vvel_min             =  -3.2574231103600E-02
(PID.TID 0000.0001) %MON dynstat_vvel_mean            =  -1.4415674036307E-08
(PID.TID 0000.0001) %MON dynstat_vvel_sd              =   1.5794494845558E-02
(PID.TID 0000.0001) %MON dynstat_vvel_del2            =   7.0237273010986E-05
(PID.TID 0000.0001) %MON dynstat_wvel_max             =   2.1352103226818E-08
(PID.TID 0000.0001) %MON dynstat_wvel_min             =  -1.1765638759825E-08
(PID.TID 0000.0001) %MON dynstat_wvel_mean            =  -1.2074628506929E-21
(PID.TID 0000.0001) %MON dynstat_wvel_sd              =   7.4778366955021E-09
(PID.TID 0000.0001) %MON dynstat_wvel_del2            =   3.9246675203056E-12
(PID.TID 0000.0001) %MON dynstat_theta_max            =   2.0000000000000E+01
(PID.TID 0000.0001) %MON dynstat_theta_min            =   2.0000000000000E+01
(PID.TID 0000.0001) %MON dynstat_theta_mean           =   2.0000000000000E+01
(PID.TID 0000.0001) %MON dynstat_theta_sd             =   0.0000000000000E+00
(PID.TID 0000.0001) %MON dynstat_theta_del2           =   0.0000000000000E+00
(PID.TID 0000.0001) %MON dynstat_salt_max             =   3.0000000000000E+01
(PID.TID 0000.0001) %MON dynstat_salt_min             =   3.0000000000000E+01
(PID.TID 0000.0001) %MON dynstat_salt_mean            =   3.0000000000000E+01
(PID.TID 0000.0001) %MON dynstat_salt_sd              =   0.0000000000000E+00
(PID.TID 0000.0001) %MON dynstat_salt_del2            =   0.0000000000000E+00
(PID.TID 0000.0001) %MON trAdv_CFL_u_max              =   1.5851755606799E-03
(PID.TID 0000.0001) %MON trAdv_CFL_v_max              =   5.2927531903179E-03
(PID.TID 0000.0001) %MON trAdv_CFL_w_max              =   5.1240148246754E-09
(PID.TID 0000.0001) %MON advcfl_uvel_max              =   1.5852949931731E-03
(PID.TID 0000.0001) %MON advcfl_vvel_max              =   5.2927866163699E-03
(PID.TID 0000.0001) %MON advcfl_wvel_max              =   1.0249009548873E-08
(PID.TID 0000.0001) %MON advcfl_W_hf_max              =   0.0000000000000E+00
(PID.TID 0000.0001) %MON pe_b_mean                    =   2.6075664643800E-07
(PID.TID 0000.0001) %MON ke_max                       =   3.8884050314535E-03
(PID.TID 0000.0001) %MON ke_mean                      =   1.4394907318778E-04
(PID.TID 0000.0001) %MON ke_vol                       =   7.2000000000000E+15
(PID.TID 0000.0001) %MON vort_r_min                   =  -1.4218731298703E-06
(PID.TID 0000.0001) %MON vort_r_max                   =   2.3683791533295E-06
(PID.TID 0000.0001) %MON vort_a_mean                  =   1.0600000000000E-04
(PID.TID 0000.0001) %MON vort_a_sd                    =   3.5362831444006E-06
(PID.TID 0000.0001) %MON vort_p_mean                  =   1.1130000000000E-04
(PID.TID 0000.0001) %MON vort_p_sd                    =   4.1151000258518E-05
(PID.TID 0000.0001) %MON surfExpan_theta_mean         =  -2.4144873754671E-20
(PID.TID 0000.0001) %MON surfExpan_salt_mean          =  -3.6215731648149E-20
(PID.TID 0000.0001) // =======================================================
(PID.TID 0000.0001) // End MONITOR dynamic field statistics
(PID.TID 0000.0001) // =======================================================
 cg2d: Sum(rhs),rhsMax =  -2.49971365588421E-04  1.44440737814911E-01
 cg2d: Sum(rhs),rhsMax =  -2.49442104081350E-04  1.44445121577419E-01
 cg2d: Sum(rhs),rhsMax =  -2.48910409829356E-04  1.44449507046179E-01
 cg2d: Sum(rhs),rhsMax =  -2.48376284222733E-04  1.44453894222652E-01
 cg2d: Sum(rhs),rhsMax =  -2.47976703867956E-04  1.44458283055169E-01
 cg2d: Sum(rhs),rhsMax =  -2.47575690632060E-04  1.44462673622885E-01
 cg2d: Sum(rhs),rhsMax =  -2.47173161840924E-04  1.44467065917727E-01
 cg2d: Sum(rhs),rhsMax =  -2.46769030023956E-04  1.44471459925173E-01
 cg2d: Sum(rhs),rhsMax =  -2.46363249449395E-04  1.44475855646530E-01
 cg2d: Sum(rhs),rhsMax =  -2.46035372353305E-04  1.44480253256553E-01
 cg2d: Sum(rhs),rhsMax =  -2.45706279538743E-04  1.44484652410170E-01
 cg2d: Sum(rhs),rhsMax =  -2.45454556896065E-04  1.44489053110040E-01
 cg2d: Sum(rhs),rhsMax =  -2.45202062743685E-04  1.44493455679129E-01
 cg2d: Sum(rhs),rhsMax =  -2.44948627935202E-04  1.44497859979994E-01
 cg2d: Sum(rhs),rhsMax =  -2.44694252857966E-04  1.44502266000800E-01
 cg2d: Sum(rhs),rhsMax =  -2.44438919948379E-04  1.44506673744119E-01
 cg2d: Sum(rhs),rhsMax =  -2.44182634264888E-04  1.44511083212445E-01
 cg2d: Sum(rhs),rhsMax =  -2.43925407441051E-04  1.44515494407181E-01
 cg2d: Sum(rhs),rhsMax =  -2.43667248470317E-04  1.44519907328383E-01
 cg2d: Sum(rhs),rhsMax =  -2.43408159716848E-04  1.44524321975776E-01
 cg2d: Sum(rhs),rhsMax =  -2.43148138615398E-04  1.44528738349532E-01
 cg2d: Sum(rhs),rhsMax =  -2.42887180494087E-04  1.44533156450420E-01
 cg2d: Sum(rhs),rhsMax =  -2.42625281186807E-04  1.44537576279525E-01
 cg2d: Sum(rhs),rhsMax =  -2.42362438231222E-04  1.44541997837932E-01
 cg2d: Sum(rhs),rhsMax =  -2.42098650437504E-04  1.44546421126540E-01
 cg2d: Sum(rhs),rhsMax =  -2.41833916995467E-04  1.44550846146063E-01
 cg2d: Sum(rhs),rhsMax =  -2.41568237315943E-04  1.44555272897088E-01
 cg2d: Sum(rhs),rhsMax =  -2.41301610141111E-04  1.44559701380155E-01
 cg2d: Sum(rhs),rhsMax =  -2.41034034193027E-04  1.44564131595799E-01
 cg2d: Sum(rhs),rhsMax =  -2.40765507671441E-04  1.44568563544541E-01
 cg2d: Sum(rhs),rhsMax =  -2.40496029000087E-04  1.44572997226882E-01
 cg2d: Sum(rhs),rhsMax =  -2.40225596497346E-04  1.44577432643290E-01
 cg2d: Sum(rhs),rhsMax =  -2.40027156185929E-04  1.44581869776387E-01
 cg2d: Sum(rhs),rhsMax =  -2.39827914464557E-04  1.44586308642938E-01
 cg2d: Sum(rhs),rhsMax =  -2.39627891313098E-04  1.44590749257172E-01
 cg2d: Sum(rhs),rhsMax =  -2.39427048583644E-04  1.44595191606794E-01
 cg2d: Sum(rhs),rhsMax =  -2.39225371209561E-04  1.44599635691410E-01
 cg2d: Sum(rhs),rhsMax =  -2.39022856185414E-04  1.44604081512628E-01
 cg2d: Sum(rhs),rhsMax =  -2.38819506929330E-04  1.44608529071638E-01
 cg2d: Sum(rhs),rhsMax =  -2.38615327243675E-04  1.44612978368370E-01
 cg2d: Sum(rhs),rhsMax =  -2.38410318168889E-04  1.44617429402118E-01
 cg2d: Sum(rhs),rhsMax =  -2.38204477924322E-04  1.44621882172306E-01
 cg2d: Sum(rhs),rhsMax =  -2.37997802940084E-04  1.44626336678791E-01
 cg2d: Sum(rhs),rhsMax =  -2.37790289553675E-04  1.44630792921746E-01
 cg2d: Sum(rhs),rhsMax =  -2.37581934573661E-04  1.44635250901417E-01
 cg2d: Sum(rhs),rhsMax =  -2.37372735882881E-04  1.44639710617950E-01
 cg2d: Sum(rhs),rhsMax =  -2.37162691725442E-04  1.44644172071344E-01
 cg2d: Sum(rhs),rhsMax =  -2.36951800289180E-04  1.44648635261484E-01
 cg2d: Sum(rhs),rhsMax =  -2.36740059812689E-04  1.44653100188188E-01
 cg2d: Sum(rhs),rhsMax =  -2.36527468118566E-04  1.44657566851251E-01
 cg2d: Sum(rhs),rhsMax =  -2.36314023118234E-04  1.44662035250452E-01
 cg2d: Sum(rhs),rhsMax =  -2.36099722708170E-04  1.44666505385544E-01
 cg2d: Sum(rhs),rhsMax =  -2.35884564707279E-04  1.44670977256250E-01
 cg2d: Sum(rhs),rhsMax =  -2.35668546999248E-04  1.44675450862256E-01
 cg2d: Sum(rhs),rhsMax =  -2.35451667512312E-04  1.44679926203208E-01
 cg2d: Sum(rhs),rhsMax =  -2.35233924411230E-04  1.44684403278722E-01
 cg2d: Sum(rhs),rhsMax =  -2.35015315540390E-04  1.44688882088376E-01
 cg2d: Sum(rhs),rhsMax =  -2.34795838946036E-04  1.44693362631720E-01
 cg2d: Sum(rhs),rhsMax =  -2.34575492629127E-04  1.44697844908269E-01
 cg2d: Sum(rhs),rhsMax =  -2.34354274669495E-04  1.44702328917503E-01
 cg2d: Sum(rhs),rhsMax =  -2.34132182981710E-04  1.44706814658863E-01
 cg2d: Sum(rhs),rhsMax =  -2.33909215482647E-04  1.44711302131757E-01
 cg2d: Sum(rhs),rhsMax =  -2.33685370379147E-04  1.44715791335555E-01
 cg2d: Sum(rhs),rhsMax =  -2.33460645729227E-04  1.44720282269589E-01
 cg2d: Sum(rhs),rhsMax =  -2.33235039400629E-04  1.44724774933161E-01
 cg2d: Sum(rhs),rhsMax =  -2.33008549638382E-04  1.44729269325534E-01
 cg2d: Sum(rhs),rhsMax =  -2.32781174438279E-04  1.44733765445942E-01
 cg2d: Sum(rhs),rhsMax =  -2.32552911844798E-04  1.44738263293580E-01
 cg2d: Sum(rhs),rhsMax =  -2.32323759980274E-04  1.44742762867613E-01
 cg2d: Sum(rhs),rhsMax =  -2.32093716944730E-04  1.44747264167168E-01
 cg2d: Sum(rhs),rhsMax =  -2.31862780781421E-04  1.44751767191338E-01
 cg2d: Sum(rhs),rhsMax =  -2.31630949792041E-04  1.44756271939181E-01
(PID.TID 0000.0001)      cg2d_init_res =   1.47051305467246E-03
(PID.TID 0000.0001)      cg2d_iters(min,last) =      -1      80
(PID.TID 0000.0001)      cg2d_last_res =   8.44266608132236E-08
(PID.TID 0000.0001) // =======================================================
(PID.TID 0000.0001) // Begin MONITOR dynamic field statistics
(PID.TID 0000.0001) // =======================================================
(PID.TID 0000.0001) %MON time_tsnumber                =                  4248
(PID.TID 0000.0001) %MON time_secondsf                =   5.0976000000000E+06
(PID.TID 0000.0001) %MON dynstat_eta_max              =   5.3874045433927E-02
(PID.TID 0000.0001) %MON dynstat_eta_min              =  -2.2198137960213E-02
(PID.TID 0000.0001) %MON dynstat_eta_mean             =   1.6748693357619E-07
(PID.TID 0000.0001) %MON dynstat_eta_sd               =   1.6494856953273E-02
(PID.TID 0000.0001) %MON dynstat_eta_del2             =   1.7837708750157E-05
(PID.TID 0000.0001) %MON dynstat_uvel_max             =   2.6568238602551E-02
(PID.TID 0000.0001) %MON dynstat_uvel_min             =  -1.4355119128958E-02
(PID.TID 0000.0001) %MON dynstat_uvel_mean            =  -1.0770708842320E-07
(PID.TID 0000.0001) %MON dynstat_uvel_sd              =   6.6662672976110E-03
(PID.TID 0000.0001) %MON dynstat_uvel_del2            =   7.3845335789094E-06
(PID.TID 0000.0001) %MON dynstat_vvel_max             =   8.8252890421827E-02
(PID.TID 0000.0001) %MON dynstat_vvel_min             =  -3.2810256630225E-02
(PID.TID 0000.0001) %MON dynstat_vvel_mean            =  -1.4824560474357E-08
(PID.TID 0000.0001) %MON dynstat_vvel_sd              =   1.5785063156891E-02
(PID.TID 0000.0001) %MON dynstat_vvel_del2            =   7.0530636337264E-05
(PID.TID 0000.0001) %MON dynstat_wvel_max             =   2.1573172080680E-08
(PID.TID 0000.0001) %MON dynstat_wvel_min             =  -1.0596025639679E-08
(PID.TID 0000.0001) %MON dynstat_wvel_mean            =   5.3183523757778E-22
(PID.TID 0000.0001) %MON dynstat_wvel_sd              =   7.4671645715058E-09
(PID.TID 0000.0001) %MON dynstat_wvel_del2            =   3.8874038749873E-12
(PID.TID 0000.0001) %MON dynstat_theta_max            =   2.0000000000000E+01
(PID.TID 0000.0001) %MON dynstat_theta_min            =   2.0000000000000E+01
(PID.TID 0000.0001) %MON dynstat_theta_mean           =   2.0000000000000E+01
(PID.TID 0000.0001) %MON dynstat_theta_sd             =   0.0000000000000E+00
(PID.TID 0000.0001) %MON dynstat_theta_del2           =   0.0000000000000E+00
(PID.TID 0000.0001) %MON dynstat_salt_max             =   3.0000000000000E+01
(PID.TID 0000.0001) %MON dynstat_salt_min             =   3.0000000000000E+01
(PID.TID 0000.0001) %MON dynstat_salt_mean            =   3.0000000000000E+01
(PID.TID 0000.0001) %MON dynstat_salt_sd              =   0.0000000000000E+00
(PID.TID 0000.0001) %MON dynstat_salt_del2            =   0.0000000000000E+00
(PID.TID 0000.0001) %MON trAdv_CFL_u_max              =   1.5939693818096E-03
(PID.TID 0000.0001) %MON trAdv_CFL_v_max              =   5.2951403044286E-03
(PID.TID 0000.0001) %MON trAdv_CFL_w_max              =   5.1770339176292E-09
(PID.TID 0000.0001) %MON advcfl_uvel_max              =   1.5940943161531E-03
(PID.TID 0000.0001) %MON advcfl_vvel_max              =   5.2951734253096E-03
(PID.TID 0000.0001) %MON advcfl_wvel_max              =   1.0355122598726E-08
(PID.TID 0000.0001) %MON advcfl_W_hf_max              =   0.0000000000000E+00
(PID.TID 0000.0001) %MON pe_b_mean                    =   2.6691078012417E-07
(PID.TID 0000.0001) %MON ke_max                       =   3.8894995159068E-03
(PID.TID 0000.0001) %MON ke_mean                      =   1.4435694145967E-04
(PID.TID 0000.0001) %MON ke_vol                       =   7.2000000000000E+15
(PID.TID 0000.0001) %MON vort_r_min                   =  -1.4340859060450E-06
(PID.TID 0000.0001) %MON vort_r_max                   =   2.3738284493133E-06
(PID.TID 0000.0001) %MON vort_a_mean                  =   1.0600000000000E-04
(PID.TID 0000.0001) %MON vort_a_sd                    =   3.5364013017427E-06
(PID.TID 0000.0001) %MON vort_p_mean                  =   1.1130000000000E-04
(PID.TID 0000.0001) %MON vort_p_sd                    =   4.1151266050660E-05
(PID.TID 0000.0001) %MON surfExpan_theta_mean         =   1.0638719534957E-20
(PID.TID 0000.0001) %MON surfExpan_salt_mean          =   1.5960684625801E-20
(PID.TID 0000.0001) // =======================================================
(PID.TID 0000.0001) // End MONITOR dynamic field statistics
(PID.TID 0000.0001) // =======================================================
 cg2d: Sum(rhs),rhsMax =  -2.31398221832210E-04  1.44760778409721E-01
 cg2d: Sum(rhs),rhsMax =  -2.31164595251487E-04  1.44765286601945E-01
 cg2d: Sum(rhs),rhsMax =  -2.30930068145491E-04  1.44769796514807E-01
 cg2d: Sum(rhs),rhsMax =  -2.30694638579733E-04  1.44774308147227E-01
 cg2d: Sum(rhs),rhsMax =  -2.30458304867801E-04  1.44778821498088E-01
 cg2d: Sum(rhs),rhsMax =  -2.30221064983234E-04  1.44783336566242E-01
 cg2d: Sum(rhs),rhsMax =  -2.29982917131077E-04  1.44787853350504E-01
 cg2d: Sum(rhs),rhsMax =  -2.29743859639594E-04  1.44792371849653E-01
 cg2d: Sum(rhs),rhsMax =  -2.29503890585252E-04  1.44796892062438E-01
 cg2d: Sum(rhs),rhsMax =  -2.29263008208110E-04  1.44801413987569E-01
 cg2d: Sum(rhs),rhsMax =  -2.29021210696035E-04  1.44805937623726E-01
 cg2d: Sum(rhs),rhsMax =  -2.28778496375499E-04  1.44810462969549E-01
 cg2d: Sum(rhs),rhsMax =  -2.28534863276416E-04  1.44814990023650E-01
 cg2d: Sum(rhs),rhsMax =  -2.28290309826704E-04  1.44819518784600E-01
 cg2d: Sum(rhs),rhsMax =  -2.28044834192320E-04  1.44824049250941E-01
 cg2d: Sum(rhs),rhsMax =  -2.27798434575168E-04  1.44828581421179E-01
 cg2d: Sum(rhs),rhsMax =  -2.27551109314808E-04  1.44833115293781E-01
 cg2d: Sum(rhs),rhsMax =  -2.27302856634451E-04  1.44837650867189E-01
 cg2d: Sum(rhs),rhsMax =  -2.27053674777186E-04  1.44842188139803E-01
 cg2d: Sum(rhs),rhsMax =  -2.26803562063313E-04  1.44846727109991E-01
 cg2d: Sum(rhs),rhsMax =  -2.26552516870920E-04  1.44851267776088E-01
 cg2d: Sum(rhs),rhsMax =  -2.26300537439464E-04  1.44855810136394E-01
 cg2d: Sum(rhs),rhsMax =  -2.26047621995033E-04  1.44860354189175E-01
 cg2d: Sum(rhs),rhsMax =  -2.25793769032319E-04  1.44864899932661E-01
 cg2d: Sum(rhs),rhsMax =  -2.25538976677487E-04  1.44869447365051E-01
 cg2d: Sum(rhs),rhsMax =  -2.25283243461239E-04  1.44873996484507E-01
 cg2d: Sum(rhs),rhsMax =  -2.25026567634825E-04  1.44878547289160E-01
 cg2d: Sum(rhs),rhsMax =  -2.24768947589677E-04  1.44883099777103E-01
 cg2d: Sum(rhs),rhsMax =  -2.24510381638076E-04  1.44887653946399E-01
 cg2d: Sum(rhs),rhsMax =  -2.24250868175745E-04  1.44892209795074E-01
 cg2d: Sum(rhs),rhsMax =  -2.23990405518732E-04  1.44896767321121E-01
 cg2d: Sum(rhs),rhsMax =  -2.23728992104605E-04  1.44901326522499E-01
 cg2d: Sum(rhs),rhsMax =  -2.23466626395154E-04  1.44905887397135E-01
 cg2d: Sum(rhs),rhsMax =  -2.23203306663112E-04  1.44910449942918E-01
 cg2d: Sum(rhs),rhsMax =  -2.22939031415244E-04  1.44915014157707E-01
 cg2d: Sum(rhs),rhsMax =  -2.22673799086108E-04  1.44919580039325E-01
 cg2d: Sum(rhs),rhsMax =  -2.22407607972195E-04  1.44924147585561E-01
 cg2d: Sum(rhs),rhsMax =  -2.22140456601606E-04  1.44928716794171E-01
 cg2d: Sum(rhs),rhsMax =  -2.21872343441873E-04  1.44933287662878E-01
 cg2d: Sum(rhs),rhsMax =  -2.21603266956414E-04  1.44937860189371E-01
 cg2d: Sum(rhs),rhsMax =  -2.21333225521978E-04  1.44942434371303E-01
 cg2d: Sum(rhs),rhsMax =  -2.21062217627015E-04  1.44947010206295E-01
 cg2d: Sum(rhs),rhsMax =  -2.20790241885265E-04  1.44951587691935E-01
 cg2d: Sum(rhs),rhsMax =  -2.20517296508504E-04  1.44956166825776E-01
 cg2d: Sum(rhs),rhsMax =  -2.20243380300147E-04  1.44960747605338E-01
 cg2d: Sum(rhs),rhsMax =  -2.19968491570486E-04  1.44965330028109E-01
 cg2d: Sum(rhs),rhsMax =  -2.19692628845351E-04  1.44969914091539E-01
 cg2d: Sum(rhs),rhsMax =  -2.19415790773068E-04  1.44974499793049E-01
 cg2d: Sum(rhs),rhsMax =  -2.19137975740967E-04  1.44979087130023E-01
 cg2d: Sum(rhs),rhsMax =  -2.18859182358895E-04  1.44983676099816E-01
 cg2d: Sum(rhs),rhsMax =  -2.18579409125776E-04  1.44988266699743E-01
 cg2d: Sum(rhs),rhsMax =  -2.18298654583163E-04  1.44992858927092E-01
 cg2d: Sum(rhs),rhsMax =  -2.18016917389193E-04  1.44997452779115E-01
 cg2d: Sum(rhs),rhsMax =  -2.17734195976971E-04  1.45002048253029E-01
 cg2d: Sum(rhs),rhsMax =  -2.17450489098114E-04  1.45006645346020E-01
 cg2d: Sum(rhs),rhsMax =  -2.17165795184911E-04  1.45011244055239E-01
 cg2d: Sum(rhs),rhsMax =  -2.16880112879889E-04  1.45015844377805E-01
 cg2d: Sum(rhs),rhsMax =  -2.16593440925023E-04  1.45020446310803E-01
 cg2d: Sum(rhs),rhsMax =  -2.16305777761220E-04  1.45025049851284E-01
 cg2d: Sum(rhs),rhsMax =  -2.16017122077930E-04  1.45029654996269E-01
 cg2d: Sum(rhs),rhsMax =  -2.15727472461494E-04  1.45034261742742E-01
 cg2d: Sum(rhs),rhsMax =  -2.15436827587363E-04  1.45038870087655E-01
 cg2d: Sum(rhs),rhsMax =  -2.15145186154677E-04  1.45043480027927E-01
 cg2d: Sum(rhs),rhsMax =  -2.14852546686437E-04  1.45048091560444E-01
 cg2d: Sum(rhs),rhsMax =  -2.14558907995825E-04  1.45052704682062E-01
 cg2d: Sum(rhs),rhsMax =  -2.14264268611992E-04  1.45057319389596E-01
 cg2d: Sum(rhs),rhsMax =  -2.13968627428593E-04  1.45061935679837E-01
 cg2d: Sum(rhs),rhsMax =  -2.13671983046135E-04  1.45066553549537E-01
 cg2d: Sum(rhs),rhsMax =  -2.13374334005090E-04  1.45071172995416E-01
 cg2d: Sum(rhs),rhsMax =  -2.13075679313228E-04  1.45075794014165E-01
 cg2d: Sum(rhs),rhsMax =  -2.12776017487699E-04  1.45080416602435E-01
 cg2d: Sum(rhs),rhsMax =  -2.12475347320593E-04  1.45085040756852E-01
(PID.TID 0000.0001)      cg2d_init_res =   1.45639799925143E-03
(PID.TID 0000.0001)      cg2d_iters(min,last) =      -1      80
(PID.TID 0000.0001)      cg2d_last_res =   8.59338199273977E-08
(PID.TID 0000.0001) // =======================================================
(PID.TID 0000.0001) // Begin MONITOR dynamic field statistics
(PID.TID 0000.0001) // =======================================================
(PID.TID 0000.0001) %MON time_tsnumber                =                  4320
(PID.TID 0000.0001) %MON time_secondsf                =   5.1840000000000E+06
(PID.TID 0000.0001) %MON dynstat_eta_max              =   5.3364097302570E-02
(PID.TID 0000.0001) %MON dynstat_eta_min              =  -2.2473901173196E-02
(PID.TID 0000.0001) %MON dynstat_eta_mean             =   1.5392103325874E-07
(PID.TID 0000.0001) %MON dynstat_eta_sd               =   1.6709640354019E-02
(PID.TID 0000.0001) %MON dynstat_eta_del2             =   1.7916389660374E-05
(PID.TID 0000.0001) %MON dynstat_uvel_max             =   2.6721525615790E-02
(PID.TID 0000.0001) %MON dynstat_uvel_min             =  -1.4284428581035E-02
(PID.TID 0000.0001) %MON dynstat_uvel_mean            =  -1.3568772097947E-07
(PID.TID 0000.0001) %MON dynstat_uvel_sd              =   6.7519513191751E-03
(PID.TID 0000.0001) %MON dynstat_uvel_del2            =   7.4792529099393E-06
(PID.TID 0000.0001) %MON dynstat_vvel_max             =   8.8293086820544E-02
(PID.TID 0000.0001) %MON dynstat_vvel_min             =  -3.2989282503940E-02
(PID.TID 0000.0001) %MON dynstat_vvel_mean            =  -1.5012284852077E-08
(PID.TID 0000.0001) %MON dynstat_vvel_sd              =   1.5778232929324E-02
(PID.TID 0000.0001) %MON dynstat_vvel_del2            =   7.0819581826630E-05
(PID.TID 0000.0001) %MON dynstat_wvel_max             =   2.1670628813445E-08
(PID.TID 0000.0001) %MON dynstat_wvel_min             =  -9.4366724428255E-09
(PID.TID 0000.0001) %MON dynstat_wvel_mean            =  -2.0223433239153E-21
(PID.TID 0000.0001) %MON dynstat_wvel_sd              =   7.4600294409309E-09
(PID.TID 0000.0001) %MON dynstat_wvel_del2            =   3.8507070131061E-12
(PID.TID 0000.0001) %MON dynstat_theta_max            =   2.0000000000000E+01
(PID.TID 0000.0001) %MON dynstat_theta_min            =   2.0000000000000E+01
(PID.TID 0000.0001) %MON dynstat_theta_mean           =   2.0000000000000E+01
(PID.TID 0000.0001) %MON dynstat_theta_sd             =   0.0000000000000E+00
(PID.TID 0000.0001) %MON dynstat_theta_del2           =   0.0000000000000E+00
(PID.TID 0000.0001) %MON dynstat_salt_max             =   3.0000000000000E+01
(PID.TID 0000.0001) %MON dynstat_salt_min             =   3.0000000000000E+01
(PID.TID 0000.0001) %MON dynstat_salt_mean            =   3.0000000000000E+01
(PID.TID 0000.0001) %MON dynstat_salt_sd              =   0.0000000000000E+00
(PID.TID 0000.0001) %MON dynstat_salt_del2            =   0.0000000000000E+00
(PID.TID 0000.0001) %MON trAdv_CFL_u_max              =   1.6031610802438E-03
(PID.TID 0000.0001) %MON trAdv_CFL_v_max              =   5.2975511895092E-03
(PID.TID 0000.0001) %MON trAdv_CFL_w_max              =   5.2003281491110E-09
(PID.TID 0000.0001) %MON advcfl_uvel_max              =   1.6032915369474E-03
(PID.TID 0000.0001) %MON advcfl_vvel_max              =   5.2975852092327E-03
(PID.TID 0000.0001) %MON advcfl_wvel_max              =   1.0401901830453E-08
(PID.TID 0000.0001) %MON advcfl_W_hf_max              =   0.0000000000000E+00
(PID.TID 0000.0001) %MON pe_b_mean                    =   2.7390705124944E-07
(PID.TID 0000.0001) %MON ke_max                       =   3.8931185048981E-03
(PID.TID 0000.0001) %MON ke_mean                      =   1.4481622816184E-04
(PID.TID 0000.0001) %MON ke_vol                       =   7.2000000000000E+15
(PID.TID 0000.0001) %MON vort_r_min                   =  -1.4454684458893E-06
(PID.TID 0000.0001) %MON vort_r_max                   =   2.3797017877452E-06
(PID.TID 0000.0001) %MON vort_a_mean                  =   1.0600000000000E-04
(PID.TID 0000.0001) %MON vort_a_sd                    =   3.5365181890187E-06
(PID.TID 0000.0001) %MON vort_p_mean                  =   1.1130000000000E-04
(PID.TID 0000.0001) %MON vort_p_sd                    =   4.1151503774273E-05
(PID.TID 0000.0001) %MON surfExpan_theta_mean         =  -4.0444724113008E-20
(PID.TID 0000.0001) %MON surfExpan_salt_mean          =  -6.0669612543683E-20
(PID.TID 0000.0001) // =======================================================
(PID.TID 0000.0001) // End MONITOR dynamic field statistics
(PID.TID 0000.0001) // =======================================================
 cg2d: Sum(rhs),rhsMax =  -2.12173667497022E-04  1.45089666474003E-01
 cg2d: Sum(rhs),rhsMax =  -2.11870976819070E-04  1.45094293750445E-01
 cg2d: Sum(rhs),rhsMax =  -2.11567274148961E-04  1.45098922582702E-01
 cg2d: Sum(rhs),rhsMax =  -2.11262558083792E-04  1.45103552967263E-01
 cg2d: Sum(rhs),rhsMax =  -2.10956827499483E-04  1.45108184900590E-01
 cg2d: Sum(rhs),rhsMax =  -2.10650081062445E-04  1.45112818379104E-01
 cg2d: Sum(rhs),rhsMax =  -2.10342317728013E-04  1.45117453399201E-01
 cg2d: Sum(rhs),rhsMax =  -2.10033536222131E-04  1.45122089957240E-01
 cg2d: Sum(rhs),rhsMax =  -2.09723735386121E-04  1.45126728049549E-01
 cg2d: Sum(rhs),rhsMax =  -2.09412914107299E-04  1.45131367672421E-01
 cg2d: Sum(rhs),rhsMax =  -2.09101071123687E-04  1.45136008822120E-01
 cg2d: Sum(rhs),rhsMax =  -2.08788205404033E-04  1.45140651494875E-01
 cg2d: Sum(rhs),rhsMax =  -2.08474315637322E-04  1.45145295686885E-01
 cg2d: Sum(rhs),rhsMax =  -2.08159400726321E-04  1.45149941394311E-01
 cg2d: Sum(rhs),rhsMax =  -2.07843459624732E-04  1.45154588613290E-01
 cg2d: Sum(rhs),rhsMax =  -2.07526491109699E-04  1.45159237339917E-01
 cg2d: Sum(rhs),rhsMax =  -2.07208494264436E-04  1.45163887570265E-01
 cg2d: Sum(rhs),rhsMax =  -2.06889467879003E-04  1.45168539300365E-01
 cg2d: Sum(rhs),rhsMax =  -2.06569410888570E-04  1.45173192526220E-01
 cg2d: Sum(rhs),rhsMax =  -2.06248322142884E-04  1.45177847243803E-01
 cg2d: Sum(rhs),rhsMax =  -2.05926200738089E-04  1.45182503449050E-01
 cg2d: Sum(rhs),rhsMax =  -2.05603045537319E-04  1.45187161137868E-01
 cg2d: Sum(rhs),rhsMax =  -2.05278855420846E-04  1.45191820306131E-01
 cg2d: Sum(rhs),rhsMax =  -2.04953629473355E-04  1.45196480949681E-01
 cg2d: Sum(rhs),rhsMax =  -2.04627366640947E-04  1.45201143064326E-01
 cg2d: Sum(rhs),rhsMax =  -2.04300065983291E-04  1.45205806645845E-01
 cg2d: Sum(rhs),rhsMax =  -2.03971726356973E-04  1.45210471689982E-01
 cg2d: Sum(rhs),rhsMax =  -2.03642346872745E-04  1.45215138192452E-01
 cg2d: Sum(rhs),rhsMax =  -2.03311926535192E-04  1.45219806148934E-01
 cg2d: Sum(rhs),rhsMax =  -2.02980464362173E-04  1.45224475555079E-01
 cg2d: Sum(rhs),rhsMax =  -2.02647959527977E-04  1.45229146406504E-01
 cg2d: Sum(rhs),rhsMax =  -2.02314410915033E-04  1.45233818698793E-01
 cg2d: Sum(rhs),rhsMax =  -2.01979817672754E-04  1.45238492427502E-01
 cg2d: Sum(rhs),rhsMax =  -2.01644178915657E-04  1.45243167588151E-01
 cg2d: Sum(rhs),rhsMax =  -2.01307493697260E-04  1.45247844176230E-01
 cg2d: Sum(rhs),rhsMax =  -2.00969761097913E-04  1.45252522187197E-01
 cg2d: Sum(rhs),rhsMax =  -2.00630980256628E-04  1.45257201616479E-01
 cg2d: Sum(rhs),rhsMax =  -2.00291150329965E-04  1.45261882459470E-01
 cg2d: Sum(rhs),rhsMax =  -1.99950270471867E-04  1.45266564711532E-01
 cg2d: Sum(rhs),rhsMax =  -1.99608339723420E-04  1.45271248367997E-01
 cg2d: Sum(rhs),rhsMax =  -1.99265357380268E-04  1.45275933424164E-01
 cg2d: Sum(rhs),rhsMax =  -1.98921322507125E-04  1.45280619875302E-01
 cg2d: Sum(rhs),rhsMax =  -1.98576234467274E-04  1.45285307716647E-01
 cg2d: Sum(rhs),rhsMax =  -1.98230092246853E-04  1.45289996943402E-01
 cg2d: Sum(rhs),rhsMax =  -1.97882895159165E-04  1.45294687550743E-01
 cg2d: Sum(rhs),rhsMax =  -1.97534642443780E-04  1.45299379533810E-01
 cg2d: Sum(rhs),rhsMax =  -1.97185333357076E-04  1.45304072887714E-01
 cg2d: Sum(rhs),rhsMax =  -1.96834967110888E-04  1.45308767607534E-01
 cg2d: Sum(rhs),rhsMax =  -1.96483542957781E-04  1.45313463688317E-01
 cg2d: Sum(rhs),rhsMax =  -1.96131060198988E-04  1.45318161125081E-01
 cg2d: Sum(rhs),rhsMax =  -1.95777518168571E-04  1.45322859912808E-01
 cg2d: Sum(rhs),rhsMax =  -1.95422916088044E-04  1.45327560046454E-01
 cg2d: Sum(rhs),rhsMax =  -1.95067253272369E-04  1.45332261520941E-01
 cg2d: Sum(rhs),rhsMax =  -1.94710529218571E-04  1.45336964331160E-01
 cg2d: Sum(rhs),rhsMax =  -1.94352742995614E-04  1.45341668471971E-01
 cg2d: Sum(rhs),rhsMax =  -1.93993894209783E-04  1.45346373938202E-01
 cg2d: Sum(rhs),rhsMax =  -1.93633982076562E-04  1.45351080724653E-01
 cg2d: Sum(rhs),rhsMax =  -1.93273006071635E-04  1.45355788826088E-01
 cg2d: Sum(rhs),rhsMax =  -1.92910965581925E-04  1.45360498237246E-01
 cg2d: Sum(rhs),rhsMax =  -1.92547859946783E-04  1.45365208952828E-01
 cg2d: Sum(rhs),rhsMax =  -1.92183688591520E-04  1.45369920967511E-01
 cg2d: Sum(rhs),rhsMax =  -1.91818451085455E-04  1.45374634275935E-01
 cg2d: Sum(rhs),rhsMax =  -1.91452146837975E-04  1.45379348872715E-01
 cg2d: Sum(rhs),rhsMax =  -1.91084775214707E-04  1.45384064752429E-01
 cg2d: Sum(rhs),rhsMax =  -1.90716335822265E-04  1.45388781909628E-01
 cg2d: Sum(rhs),rhsMax =  -1.90346828202070E-04  1.45393500338831E-01
 cg2d: Sum(rhs),rhsMax =  -1.89976251668322E-04  1.45398220034530E-01
 cg2d: Sum(rhs),rhsMax =  -1.89604605935010E-04  1.45402940991177E-01
 cg2d: Sum(rhs),rhsMax =  -1.89231890501670E-04  1.45407663203204E-01
 cg2d: Sum(rhs),rhsMax =  -1.88858104849123E-04  1.45412386665006E-01
 cg2d: Sum(rhs),rhsMax =  -1.88483248623098E-04  1.45417111370948E-01
 cg2d: Sum(rhs),rhsMax =  -1.88107321436956E-04  1.45421837315366E-01
(PID.TID 0000.0001)      cg2d_init_res =   1.44195176996235E-03
(PID.TID 0000.0001)      cg2d_iters(min,last) =      -1      80
(PID.TID 0000.0001)      cg2d_last_res =   8.59004672712364E-08
(PID.TID 0000.0001) // =======================================================
(PID.TID 0000.0001) // Begin MONITOR dynamic field statistics
(PID.TID 0000.0001) // =======================================================
(PID.TID 0000.0001) %MON time_tsnumber                =                  4392
(PID.TID 0000.0001) %MON time_secondsf                =   5.2704000000000E+06
(PID.TID 0000.0001) %MON dynstat_eta_max              =   5.2898278542378E-02
(PID.TID 0000.0001) %MON dynstat_eta_min              =  -2.2728115677725E-02
(PID.TID 0000.0001) %MON dynstat_eta_mean             =   1.3650487952149E-07
(PID.TID 0000.0001) %MON dynstat_eta_sd               =   1.6943275721266E-02
(PID.TID 0000.0001) %MON dynstat_eta_del2             =   1.7989558032332E-05
(PID.TID 0000.0001) %MON dynstat_uvel_max             =   2.6881367008981E-02
(PID.TID 0000.0001) %MON dynstat_uvel_min             =  -1.4229332696018E-02
(PID.TID 0000.0001) %MON dynstat_uvel_mean            =  -1.6136441504793E-07
(PID.TID 0000.0001) %MON dynstat_uvel_sd              =   6.8366791239106E-03
(PID.TID 0000.0001) %MON dynstat_uvel_del2            =   7.5735537327135E-06
(PID.TID 0000.0001) %MON dynstat_vvel_max             =   8.8334842221217E-02
(PID.TID 0000.0001) %MON dynstat_vvel_min             =  -3.3139982650401E-02
(PID.TID 0000.0001) %MON dynstat_vvel_mean            =  -1.4986297899615E-08
(PID.TID 0000.0001) %MON dynstat_vvel_sd              =   1.5774224559384E-02
(PID.TID 0000.0001) %MON dynstat_vvel_del2            =   7.1105719317873E-05
(PID.TID 0000.0001) %MON dynstat_wvel_max             =   2.1729543017864E-08
(PID.TID 0000.0001) %MON dynstat_wvel_min             =  -1.0004373414849E-08
(PID.TID 0000.0001) %MON dynstat_wvel_mean            =  -1.2960713825628E-21
(PID.TID 0000.0001) %MON dynstat_wvel_sd              =   7.4552467540471E-09
(PID.TID 0000.0001) %MON dynstat_wvel_del2            =   3.8140732035508E-12
(PID.TID 0000.0001) %MON dynstat_theta_max            =   2.0000000000000E+01
(PID.TID 0000.0001) %MON dynstat_theta_min            =   2.0000000000000E+01
(PID.TID 0000.0001) %MON dynstat_theta_mean           =   2.0000000000000E+01
(PID.TID 0000.0001) %MON dynstat_theta_sd             =   0.0000000000000E+00
(PID.TID 0000.0001) %MON dynstat_theta_del2           =   0.0000000000000E+00
(PID.TID 0000.0001) %MON dynstat_salt_max             =   3.0000000000000E+01
(PID.TID 0000.0001) %MON dynstat_salt_min             =   3.0000000000000E+01
(PID.TID 0000.0001) %MON dynstat_salt_mean            =   3.0000000000000E+01
(PID.TID 0000.0001) %MON dynstat_salt_sd              =   0.0000000000000E+00
(PID.TID 0000.0001) %MON dynstat_salt_del2            =   0.0000000000000E+00
(PID.TID 0000.0001) %MON trAdv_CFL_u_max              =   1.6127461875314E-03
(PID.TID 0000.0001) %MON trAdv_CFL_v_max              =   5.3000549053842E-03
(PID.TID 0000.0001) %MON trAdv_CFL_w_max              =   5.2153079677373E-09
(PID.TID 0000.0001) %MON advcfl_uvel_max              =   1.6128820205389E-03
(PID.TID 0000.0001) %MON advcfl_vvel_max              =   5.3000905332730E-03
(PID.TID 0000.0001) %MON advcfl_wvel_max              =   1.0430180648575E-08
(PID.TID 0000.0001) %MON advcfl_W_hf_max              =   0.0000000000000E+00
(PID.TID 0000.0001) %MON pe_b_mean                    =   2.8162017493396E-07
(PID.TID 0000.0001) %MON ke_max                       =   3.8990315597338E-03
(PID.TID 0000.0001) %MON ke_mean                      =   1.4532011811039E-04
(PID.TID 0000.0001) %MON ke_vol                       =   7.2000000000000E+15
(PID.TID 0000.0001) %MON vort_r_min                   =  -1.4560524922202E-06
(PID.TID 0000.0001) %MON vort_r_max                   =   2.3858310696529E-06
(PID.TID 0000.0001) %MON vort_a_mean                  =   1.0600000000000E-04
(PID.TID 0000.0001) %MON vort_a_sd                    =   3.5366341920377E-06
(PID.TID 0000.0001) %MON vort_p_mean                  =   1.1130000000000E-04
(PID.TID 0000.0001) %MON vort_p_sd                    =   4.1151714106080E-05
(PID.TID 0000.0001) %MON surfExpan_theta_mean         =  -2.5921546390843E-20
(PID.TID 0000.0001) %MON surfExpan_salt_mean          =  -3.8883740671736E-20
(PID.TID 0000.0001) // =======================================================
(PID.TID 0000.0001) // End MONITOR dynamic field statistics
(PID.TID 0000.0001) // =======================================================
 cg2d: Sum(rhs),rhsMax =  -1.87730322839973E-04  1.45426564492565E-01
 cg2d: Sum(rhs),rhsMax =  -1.87352252538819E-04  1.45431292896817E-01
 cg2d: Sum(rhs),rhsMax =  -1.86973110115268E-04  1.45436022522369E-01
 cg2d: Sum(rhs),rhsMax =  -1.86592895195663E-04  1.45440753363434E-01
 cg2d: Sum(rhs),rhsMax =  -1.86211607464285E-04  1.45445485414192E-01
 cg2d: Sum(rhs),rhsMax =  -1.85829246642689E-04  1.45450218668798E-01
 cg2d: Sum(rhs),rhsMax =  -1.85445812533972E-04  1.45454953121373E-01
 cg2d: Sum(rhs),rhsMax =  -1.85061304619097E-04  1.45459688766009E-01
 cg2d: Sum(rhs),rhsMax =  -1.84675722853896E-04  1.45464425596768E-01
 cg2d: Sum(rhs),rhsMax =  -1.84289066881310E-04  1.45469163607681E-01
 cg2d: Sum(rhs),rhsMax =  -1.83901336469530E-04  1.45473902792748E-01
 cg2d: Sum(rhs),rhsMax =  -1.83512531478415E-04  1.45478643145942E-01
 cg2d: Sum(rhs),rhsMax =  -1.83122651630983E-04  1.45483384661203E-01
 cg2d: Sum(rhs),rhsMax =  -1.82731696758022E-04  1.45488127332440E-01
 cg2d: Sum(rhs),rhsMax =  -1.82339666828254E-04  1.45492871153536E-01
 cg2d: Sum(rhs),rhsMax =  -1.81946561575487E-04  1.45497616118341E-01
 cg2d: Sum(rhs),rhsMax =  -1.81552380872477E-04  1.45502362220675E-01
 cg2d: Sum(rhs),rhsMax =  -1.81157124711364E-04  1.45507109454329E-01
 cg2d: Sum(rhs),rhsMax =  -1.80760792970111E-04  1.45511857813065E-01
 cg2d: Sum(rhs),rhsMax =  -1.80363385575857E-04  1.45516607290611E-01
 cg2d: Sum(rhs),rhsMax =  -1.79964902414103E-04  1.45521357880671E-01
 cg2d: Sum(rhs),rhsMax =  -1.79565343530876E-04  1.45526109576915E-01
 cg2d: Sum(rhs),rhsMax =  -1.79164708895081E-04  1.45530862372984E-01
 cg2d: Sum(rhs),rhsMax =  -1.78762998591061E-04  1.45535616262491E-01
 cg2d: Sum(rhs),rhsMax =  -1.78360212464925E-04  1.45540371239017E-01
 cg2d: Sum(rhs),rhsMax =  -1.77956350729967E-04  1.45545127296115E-01
 cg2d: Sum(rhs),rhsMax =  -1.77551413398595E-04  1.45549884427307E-01
 cg2d: Sum(rhs),rhsMax =  -1.77145400574622E-04  1.45554642626088E-01
 cg2d: Sum(rhs),rhsMax =  -1.76738312351592E-04  1.45559401885921E-01
 cg2d: Sum(rhs),rhsMax =  -1.76330148881029E-04  1.45564162200238E-01
 cg2d: Sum(rhs),rhsMax =  -1.75920910294124E-04  1.45568923562447E-01
 cg2d: Sum(rhs),rhsMax =  -1.75510596728492E-04  1.45573685965921E-01
 cg2d: Sum(rhs),rhsMax =  -1.75099208355653E-04  1.45578449404006E-01
 cg2d: Sum(rhs),rhsMax =  -1.74686745455576E-04  1.45583213870020E-01
 cg2d: Sum(rhs),rhsMax =  -1.74273208255910E-04  1.45587979357249E-01
 cg2d: Sum(rhs),rhsMax =  -1.73858596993090E-04  1.45592745858951E-01
 cg2d: Sum(rhs),rhsMax =  -1.73442911927101E-04  1.45597513368356E-01
 cg2d: Sum(rhs),rhsMax =  -1.73026153384613E-04  1.45602281878661E-01
 cg2d: Sum(rhs),rhsMax =  -1.72608321688590E-04  1.45607051383039E-01
 cg2d: Sum(rhs),rhsMax =  -1.72189417138004E-04  1.45611821874630E-01
 cg2d: Sum(rhs),rhsMax =  -1.71769440206380E-04  1.45616593346545E-01
 cg2d: Sum(rhs),rhsMax =  -1.71348391145503E-04  1.45621365791869E-01
 cg2d: Sum(rhs),rhsMax =  -1.70926270427242E-04  1.45626139203655E-01
 cg2d: Sum(rhs),rhsMax =  -1.70503078426424E-04  1.45630913574928E-01
 cg2d: Sum(rhs),rhsMax =  -1.70078815713333E-04  1.45635688898685E-01
 cg2d: Sum(rhs),rhsMax =  -1.69653482666030E-04  1.45640465167892E-01
 cg2d: Sum(rhs),rhsMax =  -1.69227079828994E-04  1.45645242375489E-01
 cg2d: Sum(rhs),rhsMax =  -1.68799607693540E-04  1.45650020514383E-01
 cg2d: Sum(rhs),rhsMax =  -1.68371066899536E-04  1.45654799577457E-01
 cg2d: Sum(rhs),rhsMax =  -1.67941457899875E-04  1.45659579557563E-01
 cg2d: Sum(rhs),rhsMax =  -1.67510781278283E-04  1.45664360447523E-01
 cg2d: Sum(rhs),rhsMax =  -1.67079037881946E-04  1.45669142240132E-01
 cg2d: Sum(rhs),rhsMax =  -1.66646228065185E-04  1.45673924928158E-01
 cg2d: Sum(rhs),rhsMax =  -1.66212352625489E-04  1.45678708504336E-01
 cg2d: Sum(rhs),rhsMax =  -1.65777412374874E-04  1.45683492961376E-01
 cg2d: Sum(rhs),rhsMax =  -1.65244606243443E-04  1.45688278301838E-01
 cg2d: Sum(rhs),rhsMax =  -1.64710734599373E-04  1.45693064517355E-01
 cg2d: Sum(rhs),rhsMax =  -1.64175678739810E-04  1.45697851579639E-01
 cg2d: Sum(rhs),rhsMax =  -1.63639513728160E-04  1.45702639491770E-01
 cg2d: Sum(rhs),rhsMax =  -1.63102250323007E-04  1.45707428248805E-01
 cg2d: Sum(rhs),rhsMax =  -1.62563891149253E-04  1.45712217842549E-01
 cg2d: Sum(rhs),rhsMax =  -1.62024431953396E-04  1.45717008264599E-01
 cg2d: Sum(rhs),rhsMax =  -1.61483868476954E-04  1.45721799507385E-01
 cg2d: Sum(rhs),rhsMax =  -1.60942199474125E-04  1.45726591563868E-01
 cg2d: Sum(rhs),rhsMax =  -1.60399426498615E-04  1.45731384426903E-01
 cg2d: Sum(rhs),rhsMax =  -1.59855552724379E-04  1.45736178089023E-01
 cg2d: Sum(rhs),rhsMax =  -1.59310581573150E-04  1.45740972542512E-01
 cg2d: Sum(rhs),rhsMax =  -1.58764515613272E-04  1.45745767779565E-01
 cg2d: Sum(rhs),rhsMax =  -1.58217356828653E-04  1.45750563792398E-01
 cg2d: Sum(rhs),rhsMax =  -1.57669106941832E-04  1.45755360573262E-01
 cg2d: Sum(rhs),rhsMax =  -1.57119767431409E-04  1.45760158114430E-01
 cg2d: Sum(rhs),rhsMax =  -1.56569340027354E-04  1.45764956408153E-01
(PID.TID 0000.0001)      cg2d_init_res =   1.42723048896596E-03
(PID.TID 0000.0001)      cg2d_iters(min,last) =      -1      79
(PID.TID 0000.0001)      cg2d_last_res =   9.84746043637921E-08
(PID.TID 0000.0001) // =======================================================
(PID.TID 0000.0001) // Begin MONITOR dynamic field statistics
(PID.TID 0000.0001) // =======================================================
(PID.TID 0000.0001) %MON time_tsnumber                =                  4464
(PID.TID 0000.0001) %MON time_secondsf                =   5.3568000000000E+06
(PID.TID 0000.0001) %MON dynstat_eta_max              =   5.2513389487999E-02
(PID.TID 0000.0001) %MON dynstat_eta_min              =  -2.2956363828079E-02
(PID.TID 0000.0001) %MON dynstat_eta_mean             =   1.1371340239500E-07
(PID.TID 0000.0001) %MON dynstat_eta_sd               =   1.7191027473833E-02
(PID.TID 0000.0001) %MON dynstat_eta_del2             =   1.8057688841274E-05
(PID.TID 0000.0001) %MON dynstat_uvel_max             =   2.7047489037115E-02
(PID.TID 0000.0001) %MON dynstat_uvel_min             =  -1.4189725993946E-02
(PID.TID 0000.0001) %MON dynstat_uvel_mean            =  -1.8438435807258E-07
(PID.TID 0000.0001) %MON dynstat_uvel_sd              =   6.9189873637103E-03
(PID.TID 0000.0001) %MON dynstat_uvel_del2            =   7.6660132917708E-06
(PID.TID 0000.0001) %MON dynstat_vvel_max             =   8.8378713652732E-02
(PID.TID 0000.0001) %MON dynstat_vvel_min             =  -3.3234284918705E-02
(PID.TID 0000.0001) %MON dynstat_vvel_mean            =  -1.4756385176990E-08
(PID.TID 0000.0001) %MON dynstat_vvel_sd              =   1.5773164959435E-02
(PID.TID 0000.0001) %MON dynstat_vvel_del2            =   7.1390284391650E-05
(PID.TID 0000.0001) %MON dynstat_wvel_max             =   2.1703397602832E-08
(PID.TID 0000.0001) %MON dynstat_wvel_min             =  -1.0756734200404E-08
(PID.TID 0000.0001) %MON dynstat_wvel_mean            =   2.2174629066285E-21
(PID.TID 0000.0001) %MON dynstat_wvel_sd              =   7.4515815940357E-09
(PID.TID 0000.0001) %MON dynstat_wvel_del2            =   3.7791545091444E-12
(PID.TID 0000.0001) %MON dynstat_theta_max            =   2.0000000000000E+01
(PID.TID 0000.0001) %MON dynstat_theta_min            =   2.0000000000000E+01
(PID.TID 0000.0001) %MON dynstat_theta_mean           =   2.0000000000000E+01
(PID.TID 0000.0001) %MON dynstat_theta_sd             =   0.0000000000000E+00
(PID.TID 0000.0001) %MON dynstat_theta_del2           =   0.0000000000000E+00
(PID.TID 0000.0001) %MON dynstat_salt_max             =   3.0000000000000E+01
(PID.TID 0000.0001) %MON dynstat_salt_min             =   3.0000000000000E+01
(PID.TID 0000.0001) %MON dynstat_salt_mean            =   3.0000000000000E+01
(PID.TID 0000.0001) %MON dynstat_salt_sd              =   0.0000000000000E+00
(PID.TID 0000.0001) %MON dynstat_salt_del2            =   0.0000000000000E+00
(PID.TID 0000.0001) %MON trAdv_CFL_u_max              =   1.6227084397434E-03
(PID.TID 0000.0001) %MON trAdv_CFL_v_max              =   5.3026853544856E-03
(PID.TID 0000.0001) %MON trAdv_CFL_w_max              =   5.2089188848156E-09
(PID.TID 0000.0001) %MON advcfl_uvel_max              =   1.6228493422269E-03
(PID.TID 0000.0001) %MON advcfl_vvel_max              =   5.3027228191639E-03
(PID.TID 0000.0001) %MON advcfl_wvel_max              =   1.0417630849360E-08
(PID.TID 0000.0001) %MON advcfl_W_hf_max              =   0.0000000000000E+00
(PID.TID 0000.0001) %MON pe_b_mean                    =   2.8991632853225E-07
(PID.TID 0000.0001) %MON ke_max                       =   3.9050980667608E-03
(PID.TID 0000.0001) %MON ke_mean                      =   1.4586035018037E-04
(PID.TID 0000.0001) %MON ke_vol                       =   7.2000000000000E+15
(PID.TID 0000.0001) %MON vort_r_min                   =  -1.4663018860987E-06
(PID.TID 0000.0001) %MON vort_r_max                   =   2.3921600464020E-06
(PID.TID 0000.0001) %MON vort_a_mean                  =   1.0600000000000E-04
(PID.TID 0000.0001) %MON vort_a_sd                    =   3.5367495337842E-06
(PID.TID 0000.0001) %MON vort_p_mean                  =   1.1130000000000E-04
(PID.TID 0000.0001) %MON vort_p_sd                    =   4.1151897727490E-05
(PID.TID 0000.0001) %MON surfExpan_theta_mean         =   4.4352551261303E-20
(PID.TID 0000.0001) %MON surfExpan_salt_mean          =   6.6528905841147E-20
(PID.TID 0000.0001) // =======================================================
(PID.TID 0000.0001) // End MONITOR dynamic field statistics
(PID.TID 0000.0001) // =======================================================
 cg2d: Sum(rhs),rhsMax =  -1.56017826979185E-04  1.45769755446654E-01
 cg2d: Sum(rhs),rhsMax =  -1.55465230279681E-04  1.45774555222111E-01
 cg2d: Sum(rhs),rhsMax =  -1.54911552179371E-04  1.45779355726670E-01
 cg2d: Sum(rhs),rhsMax =  -1.54356795046229E-04  1.45784156952447E-01
 cg2d: Sum(rhs),rhsMax =  -1.53800960896465E-04  1.45788958891534E-01
 cg2d: Sum(rhs),rhsMax =  -1.53244052075357E-04  1.45793761535996E-01
 cg2d: Sum(rhs),rhsMax =  -1.52686070888685E-04  1.45798564877870E-01
 cg2d: Sum(rhs),rhsMax =  -1.52127019601664E-04  1.45803368909167E-01
 cg2d: Sum(rhs),rhsMax =  -1.51566900573355E-04  1.45808173621864E-01
 cg2d: Sum(rhs),rhsMax =  -1.51005716199979E-04  1.45812979007914E-01
 cg2d: Sum(rhs),rhsMax =  -1.50443469009031E-04  1.45817785059241E-01
 cg2d: Sum(rhs),rhsMax =  -1.49880161537884E-04  1.45822591767742E-01
 cg2d: Sum(rhs),rhsMax =  -1.49315796290461E-04  1.45827399125287E-01
 cg2d: Sum(rhs),rhsMax =  -1.48750375884795E-04  1.45832207123721E-01
 cg2d: Sum(rhs),rhsMax =  -1.48183902886167E-04  1.45837015754864E-01
 cg2d: Sum(rhs),rhsMax =  -1.47616379971061E-04  1.45841825010504E-01
 cg2d: Sum(rhs),rhsMax =  -1.47047809890081E-04  1.45846634882405E-01
 cg2d: Sum(rhs),rhsMax =  -1.46478195541593E-04  1.45851445362302E-01
 cg2d: Sum(rhs),rhsMax =  -1.45907539438937E-04  1.45856256441903E-01
 cg2d: Sum(rhs),rhsMax =  -1.45335844790245E-04  1.45861068112888E-01
 cg2d: Sum(rhs),rhsMax =  -1.44763114145273E-04  1.45865880366912E-01
 cg2d: Sum(rhs),rhsMax =  -1.44189350741605E-04  1.45870693195602E-01
 cg2d: Sum(rhs),rhsMax =  -1.43614557467408E-04  1.45875506590556E-01
 cg2d: Sum(rhs),rhsMax =  -1.43038737288106E-04  1.45880320543351E-01
 cg2d: Sum(rhs),rhsMax =  -1.42461893432472E-04  1.45885135045529E-01
 cg2d: Sum(rhs),rhsMax =  -1.41884028950049E-04  1.45889950088615E-01
 cg2d: Sum(rhs),rhsMax =  -1.41305147134239E-04  1.45894765664098E-01
 cg2d: Sum(rhs),rhsMax =  -1.40725251123825E-04  1.45899581763447E-01
 cg2d: Sum(rhs),rhsMax =  -1.40144344201319E-04  1.45904398378101E-01
 cg2d: Sum(rhs),rhsMax =  -1.39562429791338E-04  1.45909215499473E-01
 cg2d: Sum(rhs),rhsMax =  -1.38979511198625E-04  1.45914033118949E-01
 cg2d: Sum(rhs),rhsMax =  -1.38286657175645E-04  1.45918851447861E-01
 cg2d: Sum(rhs),rhsMax =  -1.37592758955411E-04  1.45923670057554E-01
 cg2d: Sum(rhs),rhsMax =  -1.36898000161615E-04  1.45928489124216E-01
 cg2d: Sum(rhs),rhsMax =  -1.36202356270773E-04  1.45933308653303E-01
 cg2d: Sum(rhs),rhsMax =  -1.35505840043565E-04  1.45938128637900E-01
 cg2d: Sum(rhs),rhsMax =  -1.34808457309172E-04  1.45942949068935E-01
 cg2d: Sum(rhs),rhsMax =  -1.34110208691346E-04  1.45947769936634E-01
 cg2d: Sum(rhs),rhsMax =  -1.33411094795966E-04  1.45952591231937E-01
 cg2d: Sum(rhs),rhsMax =  -1.32711118587102E-04  1.45957412946351E-01
 cg2d: Sum(rhs),rhsMax =  -1.32010285634257E-04  1.45962235071373E-01
 cg2d: Sum(rhs),rhsMax =  -1.31308602865193E-04  1.45967057598239E-01
 cg2d: Sum(rhs),rhsMax =  -1.30606077242758E-04  1.45971880517965E-01
 cg2d: Sum(rhs),rhsMax =  -1.29902715350210E-04  1.45976703821480E-01
 cg2d: Sum(rhs),rhsMax =  -1.29198523084649E-04  1.45981527499720E-01
 cg2d: Sum(rhs),rhsMax =  -1.28493506242233E-04  1.45986351543649E-01
 cg2d: Sum(rhs),rhsMax =  -1.27787670419380E-04  1.45991175944241E-01
 cg2d: Sum(rhs),rhsMax =  -1.27081021575473E-04  1.45996000692455E-01
 cg2d: Sum(rhs),rhsMax =  -1.26373565884056E-04  1.46000825779220E-01
 cg2d: Sum(rhs),rhsMax =  -1.25665309507110E-04  1.46005651195430E-01
 cg2d: Sum(rhs),rhsMax =  -1.24956258928230E-04  1.46010476931950E-01
 cg2d: Sum(rhs),rhsMax =  -1.24246420567359E-04  1.46015302979617E-01
 cg2d: Sum(rhs),rhsMax =  -1.23535800691719E-04  1.46020129329248E-01
 cg2d: Sum(rhs),rhsMax =  -1.22824405876399E-04  1.46024955971628E-01
 cg2d: Sum(rhs),rhsMax =  -1.22112242708276E-04  1.46029782897524E-01
 cg2d: Sum(rhs),rhsMax =  -1.21399317618871E-04  1.46034610097672E-01
 cg2d: Sum(rhs),rhsMax =  -1.20685637489430E-04  1.46039437562780E-01
 cg2d: Sum(rhs),rhsMax =  -1.19971208922804E-04  1.46044265283535E-01
 cg2d: Sum(rhs),rhsMax =  -1.19256038847985E-04  1.46049093250592E-01
 cg2d: Sum(rhs),rhsMax =  -1.18540134184377E-04  1.46053921454587E-01
 cg2d: Sum(rhs),rhsMax =  -1.17823501758712E-04  1.46058749886129E-01
 cg2d: Sum(rhs),rhsMax =  -1.17106148689837E-04  1.46063578535803E-01
 cg2d: Sum(rhs),rhsMax =  -1.16388082041000E-04  1.46068407394170E-01
 cg2d: Sum(rhs),rhsMax =  -1.15669309049064E-04  1.46073236451764E-01
 cg2d: Sum(rhs),rhsMax =  -1.14841827116764E-04  1.46078065571460E-01
 cg2d: Sum(rhs),rhsMax =  -1.14013982031733E-04  1.46082895005010E-01
 cg2d: Sum(rhs),rhsMax =  -1.13185611293967E-04  1.46087724609820E-01
 cg2d: Sum(rhs),rhsMax =  -1.12356802037210E-04  1.46092554374252E-01
 cg2d: Sum(rhs),rhsMax =  -1.11527565652482E-04  1.46097384291142E-01
 cg2d: Sum(rhs),rhsMax =  -1.10697912754884E-04  1.46102214350796E-01
 cg2d: Sum(rhs),rhsMax =  -1.09867849610191E-04  1.46107044542709E-01
 cg2d: Sum(rhs),rhsMax =  -1.09037382704472E-04  1.46111874856799E-01
(PID.TID 0000.0001)      cg2d_init_res =   1.41231528066303E-03
(PID.TID 0000.0001)      cg2d_iters(min,last) =      -1      77
(PID.TID 0000.0001)      cg2d_last_res =   9.81996042849174E-08
(PID.TID 0000.0001) // =======================================================
(PID.TID 0000.0001) // Begin MONITOR dynamic field statistics
(PID.TID 0000.0001) // =======================================================
(PID.TID 0000.0001) %MON time_tsnumber                =                  4536
(PID.TID 0000.0001) %MON time_secondsf                =   5.4432000000000E+06
(PID.TID 0000.0001) %MON dynstat_eta_max              =   5.2188811016328E-02
(PID.TID 0000.0001) %MON dynstat_eta_min              =  -2.3154667118330E-02
(PID.TID 0000.0001) %MON dynstat_eta_mean             =   7.9053901060346E-08
(PID.TID 0000.0001) %MON dynstat_eta_sd               =   1.7448184576056E-02
(PID.TID 0000.0001) %MON dynstat_eta_del2             =   1.8121220215446E-05
(PID.TID 0000.0001) %MON dynstat_uvel_max             =   2.7219429698520E-02
(PID.TID 0000.0001) %MON dynstat_uvel_min             =  -1.4165294442085E-02
(PID.TID 0000.0001) %MON dynstat_uvel_mean            =  -2.0443681472857E-07
(PID.TID 0000.0001) %MON dynstat_uvel_sd              =   6.9975077555211E-03
(PID.TID 0000.0001) %MON dynstat_uvel_del2            =   7.7552994173543E-06
(PID.TID 0000.0001) %MON dynstat_vvel_max             =   8.8453014442318E-02
(PID.TID 0000.0001) %MON dynstat_vvel_min             =  -3.3283662367506E-02
(PID.TID 0000.0001) %MON dynstat_vvel_mean            =  -1.4334702756356E-08
(PID.TID 0000.0001) %MON dynstat_vvel_sd              =   1.5775086194903E-02
(PID.TID 0000.0001) %MON dynstat_vvel_del2            =   7.1674137159401E-05
(PID.TID 0000.0001) %MON dynstat_wvel_max             =   2.1553604023065E-08
(PID.TID 0000.0001) %MON dynstat_wvel_min             =  -1.1502818552253E-08
(PID.TID 0000.0001) %MON dynstat_wvel_mean            =   3.5733281341284E-21
(PID.TID 0000.0001) %MON dynstat_wvel_sd              =   7.4478187259555E-09
(PID.TID 0000.0001) %MON dynstat_wvel_del2            =   3.7430694857615E-12
(PID.TID 0000.0001) %MON dynstat_theta_max            =   2.0000000000000E+01
(PID.TID 0000.0001) %MON dynstat_theta_min            =   2.0000000000000E+01
(PID.TID 0000.0001) %MON dynstat_theta_mean           =   2.0000000000000E+01
(PID.TID 0000.0001) %MON dynstat_theta_sd             =   0.0000000000000E+00
(PID.TID 0000.0001) %MON dynstat_theta_del2           =   0.0000000000000E+00
(PID.TID 0000.0001) %MON dynstat_salt_max             =   3.0000000000000E+01
(PID.TID 0000.0001) %MON dynstat_salt_min             =   3.0000000000000E+01
(PID.TID 0000.0001) %MON dynstat_salt_mean            =   3.0000000000000E+01
(PID.TID 0000.0001) %MON dynstat_salt_sd              =   0.0000000000000E+00
(PID.TID 0000.0001) %MON dynstat_salt_del2            =   0.0000000000000E+00
(PID.TID 0000.0001) %MON trAdv_CFL_u_max              =   1.6330202694699E-03
(PID.TID 0000.0001) %MON trAdv_CFL_v_max              =   5.3070997983117E-03
(PID.TID 0000.0001) %MON trAdv_CFL_w_max              =   5.1737948771333E-09
(PID.TID 0000.0001) %MON advcfl_uvel_max              =   1.6331657819112E-03
(PID.TID 0000.0001) %MON advcfl_vvel_max              =   5.3071808665391E-03
(PID.TID 0000.0001) %MON advcfl_wvel_max              =   1.0345729931071E-08
(PID.TID 0000.0001) %MON advcfl_W_hf_max              =   0.0000000000000E+00
(PID.TID 0000.0001) %MON pe_b_mean                    =   2.9865480125124E-07
(PID.TID 0000.0001) %MON ke_max                       =   3.9113123725516E-03
(PID.TID 0000.0001) %MON ke_mean                      =   1.4642740914954E-04
(PID.TID 0000.0001) %MON ke_vol                       =   7.2000000000000E+15
(PID.TID 0000.0001) %MON vort_r_min                   =  -1.4763673816685E-06
(PID.TID 0000.0001) %MON vort_r_max                   =   2.3986190986810E-06
(PID.TID 0000.0001) %MON vort_a_mean                  =   1.0600000000000E-04
(PID.TID 0000.0001) %MON vort_a_sd                    =   3.5368642782770E-06
(PID.TID 0000.0001) %MON vort_p_mean                  =   1.1130000000000E-04
(PID.TID 0000.0001) %MON vort_p_sd                    =   4.1152055343083E-05
(PID.TID 0000.0001) %MON surfExpan_theta_mean         =   7.1464333216574E-20
(PID.TID 0000.0001) %MON surfExpan_salt_mean          =   1.0719547225177E-19
(PID.TID 0000.0001) // =======================================================
(PID.TID 0000.0001) // End MONITOR dynamic field statistics
(PID.TID 0000.0001) // =======================================================
 cg2d: Sum(rhs),rhsMax =  -1.08206520131133E-04  1.46116705283553E-01
 cg2d: Sum(rhs),rhsMax =  -1.07375271428625E-04  1.46121535813514E-01
 cg2d: Sum(rhs),rhsMax =  -1.06543647234250E-04  1.46126366437055E-01
 cg2d: Sum(rhs),rhsMax =  -1.05711657973579E-04  1.46131197144386E-01
 cg2d: Sum(rhs),rhsMax =  -1.04879314121874E-04  1.46136027925647E-01
 cg2d: Sum(rhs),rhsMax =  -1.04046625527957E-04  1.46140858770971E-01
 cg2d: Sum(rhs),rhsMax =  -1.03213602106809E-04  1.46145689670503E-01
 cg2d: Sum(rhs),rhsMax =  -1.02380253914618E-04  1.46150520614387E-01
 cg2d: Sum(rhs),rhsMax =  -1.01546590999970E-04  1.46155351592750E-01
 cg2d: Sum(rhs),rhsMax =  -1.00712623570550E-04  1.46160182595690E-01
 cg2d: Sum(rhs),rhsMax =  -9.98783620356214E-05  1.46165013613276E-01
 cg2d: Sum(rhs),rhsMax =  -9.90438167938418E-05  1.46169844635549E-01
 cg2d: Sum(rhs),rhsMax =  -9.82089985132823E-05  1.46174675652525E-01
 cg2d: Sum(rhs),rhsMax =  -9.73739177472042E-05  1.46179506654198E-01
 cg2d: Sum(rhs),rhsMax =  -9.65385851530763E-05  1.46184337630539E-01
 cg2d: Sum(rhs),rhsMax =  -9.57030112614596E-05  1.46189168571494E-01
 cg2d: Sum(rhs),rhsMax =  -9.48672071463819E-05  1.46193999466985E-01
 cg2d: Sum(rhs),rhsMax =  -9.40311835668402E-05  1.46198830306907E-01
 cg2d: Sum(rhs),rhsMax =  -9.31949514114570E-05  1.46203661081135E-01
 cg2d: Sum(rhs),rhsMax =  -9.23585218681969E-05  1.46208491779517E-01
 cg2d: Sum(rhs),rhsMax =  -9.15219060115564E-05  1.46213322391877E-01
 cg2d: Sum(rhs),rhsMax =  -9.06851150683933E-05  1.46218152908018E-01
 cg2d: Sum(rhs),rhsMax =  -8.98481602884527E-05  1.46222983317719E-01
 cg2d: Sum(rhs),rhsMax =  -8.90110529728604E-05  1.46227813610737E-01
 cg2d: Sum(rhs),rhsMax =  -8.80758847271162E-05  1.46232643922651E-01
 cg2d: Sum(rhs),rhsMax =  -8.71407636582142E-05  1.46237473969067E-01
 cg2d: Sum(rhs),rhsMax =  -8.62058566095123E-05  1.46242303854245E-01
 cg2d: Sum(rhs),rhsMax =  -8.52711346007009E-05  1.46247133579534E-01
 cg2d: Sum(rhs),rhsMax =  -8.43366099439911E-05  1.46251963137362E-01
 cg2d: Sum(rhs),rhsMax =  -8.34022958982926E-05  1.46256792517699E-01
 cg2d: Sum(rhs),rhsMax =  -8.24682050858958E-05  1.46261621709326E-01
 cg2d: Sum(rhs),rhsMax =  -8.15343499511040E-05  1.46266450701287E-01
 cg2d: Sum(rhs),rhsMax =  -8.06007436712670E-05  1.46271279483096E-01
 cg2d: Sum(rhs),rhsMax =  -7.96673996034470E-05  1.46276108044419E-01
 cg2d: Sum(rhs),rhsMax =  -7.87343316734123E-05  1.46280936374844E-01
 cg2d: Sum(rhs),rhsMax =  -7.78015537609995E-05  1.46285764463857E-01
 cg2d: Sum(rhs),rhsMax =  -7.68690796811994E-05  1.46290592300885E-01
 cg2d: Sum(rhs),rhsMax =  -7.59369233396343E-05  1.46295419875331E-01
 cg2d: Sum(rhs),rhsMax =  -7.50050986247763E-05  1.46300247176591E-01
 cg2d: Sum(rhs),rhsMax =  -7.40736193402172E-05  1.46305074194047E-01
 cg2d: Sum(rhs),rhsMax =  -7.31424995695949E-05  1.46309900917061E-01
 cg2d: Sum(rhs),rhsMax =  -7.22117534283362E-05  1.46314727334976E-01
 cg2d: Sum(rhs),rhsMax =  -7.12813950799777E-05  1.46319553437107E-01
 cg2d: Sum(rhs),rhsMax =  -7.03514389024610E-05  1.46324379212747E-01
 cg2d: Sum(rhs),rhsMax =  -6.94218991238007E-05  1.46329204651168E-01
 cg2d: Sum(rhs),rhsMax =  -6.84927903177096E-05  1.46334029741614E-01
 cg2d: Sum(rhs),rhsMax =  -6.75641267710910E-05  1.46338854473314E-01
 cg2d: Sum(rhs),rhsMax =  -6.66359232489883E-05  1.46343678835468E-01
 cg2d: Sum(rhs),rhsMax =  -6.57081942817654E-05  1.46348502817258E-01
 cg2d: Sum(rhs),rhsMax =  -6.47809545943874E-05  1.46353326407839E-01
 cg2d: Sum(rhs),rhsMax =  -6.38542189180559E-05  1.46358149596346E-01
 cg2d: Sum(rhs),rhsMax =  -6.29280022308720E-05  1.46362972371891E-01
 cg2d: Sum(rhs),rhsMax =  -6.19008518555992E-05  1.46367794647790E-01
 cg2d: Sum(rhs),rhsMax =  -6.08746450937976E-05  1.46372616594611E-01
 cg2d: Sum(rhs),rhsMax =  -5.98493003748654E-05  1.46377438072875E-01
 cg2d: Sum(rhs),rhsMax =  -5.88248659502966E-05  1.46382259090876E-01
 cg2d: Sum(rhs),rhsMax =  -5.78013550042349E-05  1.46387079641962E-01
 cg2d: Sum(rhs),rhsMax =  -5.67787843574795E-05  1.46391899715859E-01
 cg2d: Sum(rhs),rhsMax =  -5.57571708628543E-05  1.46396719300705E-01
 cg2d: Sum(rhs),rhsMax =  -5.47365318678420E-05  1.46401538384735E-01
 cg2d: Sum(rhs),rhsMax =  -5.37168844423393E-05  1.46406356956647E-01
 cg2d: Sum(rhs),rhsMax =  -5.26982453427733E-05  1.46411175005366E-01
 cg2d: Sum(rhs),rhsMax =  -5.16806314280653E-05  1.46415992519831E-01
 cg2d: Sum(rhs),rhsMax =  -5.06640593311613E-05  1.46420809488933E-01
 cg2d: Sum(rhs),rhsMax =  -4.96485458240138E-05  1.46425625901513E-01
 cg2d: Sum(rhs),rhsMax =  -4.86341079633410E-05  1.46430441746381E-01
 cg2d: Sum(rhs),rhsMax =  -4.76207627382588E-05  1.46435257012320E-01
 cg2d: Sum(rhs),rhsMax =  -4.66085273805993E-05  1.46440071688090E-01
 cg2d: Sum(rhs),rhsMax =  -4.55974191416351E-05  1.46444885762427E-01
 cg2d: Sum(rhs),rhsMax =  -4.45874551971469E-05  1.46449699224051E-01
 cg2d: Sum(rhs),rhsMax =  -4.35786528671040E-05  1.46454512061662E-01
 cg2d: Sum(rhs),rhsMax =  -4.25710295174058E-05  1.46459324263934E-01
(PID.TID 0000.0001)      cg2d_init_res =   1.39730865070183E-03
(PID.TID 0000.0001)      cg2d_iters(min,last) =      -1      75
(PID.TID 0000.0001)      cg2d_last_res =   9.53679390482859E-08
(PID.TID 0000.0001) // =======================================================
(PID.TID 0000.0001) // Begin MONITOR dynamic field statistics
(PID.TID 0000.0001) // =======================================================
(PID.TID 0000.0001) %MON time_tsnumber                =                  4608
(PID.TID 0000.0001) %MON time_secondsf                =   5.5296000000000E+06
(PID.TID 0000.0001) %MON dynstat_eta_max              =   5.1913951621961E-02
(PID.TID 0000.0001) %MON dynstat_eta_min              =  -2.3319532987055E-02
(PID.TID 0000.0001) %MON dynstat_eta_mean             =   3.0438617985433E-08
(PID.TID 0000.0001) %MON dynstat_eta_sd               =   1.7710139976387E-02
(PID.TID 0000.0001) %MON dynstat_eta_del2             =   1.8180551120200E-05
(PID.TID 0000.0001) %MON dynstat_uvel_max             =   2.7396549538953E-02
(PID.TID 0000.0001) %MON dynstat_uvel_min             =  -1.4155529086425E-02
(PID.TID 0000.0001) %MON dynstat_uvel_mean            =  -2.2125571125557E-07
(PID.TID 0000.0001) %MON dynstat_uvel_sd              =   7.0709853415808E-03
(PID.TID 0000.0001) %MON dynstat_uvel_del2            =   7.8402015043293E-06
(PID.TID 0000.0001) %MON dynstat_vvel_max             =   8.8550261044314E-02
(PID.TID 0000.0001) %MON dynstat_vvel_min             =  -3.3334844842755E-02
(PID.TID 0000.0001) %MON dynstat_vvel_mean            =  -1.3735633769708E-08
(PID.TID 0000.0001) %MON dynstat_vvel_sd              =   1.5779925442555E-02
(PID.TID 0000.0001) %MON dynstat_vvel_del2            =   7.1957767806132E-05
(PID.TID 0000.0001) %MON dynstat_wvel_max             =   2.1384846298606E-08
(PID.TID 0000.0001) %MON dynstat_wvel_min             =  -1.2239197042072E-08
(PID.TID 0000.0001) %MON dynstat_wvel_mean            =  -2.0063263643048E-23
(PID.TID 0000.0001) %MON dynstat_wvel_sd              =   7.4428281876236E-09
(PID.TID 0000.0001) %MON dynstat_wvel_del2            =   3.7059205215207E-12
(PID.TID 0000.0001) %MON dynstat_theta_max            =   2.0000000000000E+01
(PID.TID 0000.0001) %MON dynstat_theta_min            =   2.0000000000000E+01
(PID.TID 0000.0001) %MON dynstat_theta_mean           =   2.0000000000000E+01
(PID.TID 0000.0001) %MON dynstat_theta_sd             =   0.0000000000000E+00
(PID.TID 0000.0001) %MON dynstat_theta_del2           =   0.0000000000000E+00
(PID.TID 0000.0001) %MON dynstat_salt_max             =   3.0000000000000E+01
(PID.TID 0000.0001) %MON dynstat_salt_min             =   3.0000000000000E+01
(PID.TID 0000.0001) %MON dynstat_salt_mean            =   3.0000000000000E+01
(PID.TID 0000.0001) %MON dynstat_salt_sd              =   0.0000000000000E+00
(PID.TID 0000.0001) %MON dynstat_salt_del2            =   0.0000000000000E+00
(PID.TID 0000.0001) %MON trAdv_CFL_u_max              =   1.6436434523386E-03
(PID.TID 0000.0001) %MON trAdv_CFL_v_max              =   5.3129348089323E-03
(PID.TID 0000.0001) %MON trAdv_CFL_w_max              =   5.1331910971552E-09
(PID.TID 0000.0001) %MON advcfl_uvel_max              =   1.6437929723372E-03
(PID.TID 0000.0001) %MON advcfl_vvel_max              =   5.3130156626588E-03
(PID.TID 0000.0001) %MON advcfl_wvel_max              =   1.0264726223331E-08
(PID.TID 0000.0001) %MON advcfl_W_hf_max              =   0.0000000000000E+00
(PID.TID 0000.0001) %MON pe_b_mean                    =   3.0768972588244E-07
(PID.TID 0000.0001) %MON ke_max                       =   3.9176218179077E-03
(PID.TID 0000.0001) %MON ke_mean                      =   1.4701073302194E-04
(PID.TID 0000.0001) %MON ke_vol                       =   7.2000000000000E+15
(PID.TID 0000.0001) %MON vort_r_min                   =  -1.4857402378240E-06
(PID.TID 0000.0001) %MON vort_r_max                   =   2.4051268019240E-06
(PID.TID 0000.0001) %MON vort_a_mean                  =   1.0600000000000E-04
(PID.TID 0000.0001) %MON vort_a_sd                    =   3.5369783368765E-06
(PID.TID 0000.0001) %MON vort_p_mean                  =   1.1130000000000E-04
(PID.TID 0000.0001) %MON vort_p_sd                    =   4.1152187697665E-05
(PID.TID 0000.0001) %MON surfExpan_theta_mean         =  -4.0137769651159E-22
(PID.TID 0000.0001) %MON surfExpan_salt_mean          =  -6.0396132539609E-22
(PID.TID 0000.0001) // =======================================================
(PID.TID 0000.0001) // End MONITOR dynamic field statistics
(PID.TID 0000.0001) // =======================================================
 cg2d: Sum(rhs),rhsMax =  -4.15646025614287E-05  1.46464135819527E-01
 cg2d: Sum(rhs),rhsMax =  -4.05593895038189E-05  1.46468946717075E-01
 cg2d: Sum(rhs),rhsMax =  -3.95554079451162E-05  1.46473756945194E-01
 cg2d: Sum(rhs),rhsMax =  -3.85526753206630E-05  1.46478566492473E-01
 cg2d: Sum(rhs),rhsMax =  -3.75512095578141E-05  1.46483375347487E-01
 cg2d: Sum(rhs),rhsMax =  -3.65510282705882E-05  1.46488183498786E-01
 cg2d: Sum(rhs),rhsMax =  -3.55521492535456E-05  1.46492990934899E-01
 cg2d: Sum(rhs),rhsMax =  -3.45545902486104E-05  1.46497797644335E-01
 cg2d: Sum(rhs),rhsMax =  -3.35583694351009E-05  1.46502603615582E-01
 cg2d: Sum(rhs),rhsMax =  -3.25635045544575E-05  1.46507408837108E-01
 cg2d: Sum(rhs),rhsMax =  -3.15700137360000E-05  1.46512213297362E-01
 cg2d: Sum(rhs),rhsMax =  -3.05779150904864E-05  1.46517016984765E-01
 cg2d: Sum(rhs),rhsMax =  -2.95872267755725E-05  1.46521819887727E-01
 cg2d: Sum(rhs),rhsMax =  -2.85979669225759E-05  1.46526621994630E-01
 cg2d: Sum(rhs),rhsMax =  -2.76101539094529E-05  1.46531423293838E-01
 cg2d: Sum(rhs),rhsMax =  -2.66237273293581E-05  1.46536656605085E-01
 cg2d: Sum(rhs),rhsMax =  -2.56386952217349E-05  1.46542431110233E-01
 cg2d: Sum(rhs),rhsMax =  -2.46551781771390E-05  1.46548204532453E-01
 cg2d: Sum(rhs),rhsMax =  -2.36731947618630E-05  1.46553976859592E-01
 cg2d: Sum(rhs),rhsMax =  -2.26927634198243E-05  1.46559748079479E-01
 cg2d: Sum(rhs),rhsMax =  -2.17139027250245E-05  1.46565518179922E-01
 cg2d: Sum(rhs),rhsMax =  -2.07366312883093E-05  1.46571287148710E-01
 cg2d: Sum(rhs),rhsMax =  -1.97609678517481E-05  1.46577054973611E-01
 cg2d: Sum(rhs),rhsMax =  -1.87869311653113E-05  1.46582821642372E-01
 cg2d: Sum(rhs),rhsMax =  -1.78145400375638E-05  1.46588587142724E-01
 cg2d: Sum(rhs),rhsMax =  -1.68438133053865E-05  1.46594351462376E-01
 cg2d: Sum(rhs),rhsMax =  -1.58747698604175E-05  1.46600114589016E-01
 cg2d: Sum(rhs),rhsMax =  -1.49074287144257E-05  1.46605876510317E-01
 cg2d: Sum(rhs),rhsMax =  -1.39418088112653E-05  1.46611637213929E-01
 cg2d: Sum(rhs),rhsMax =  -1.29779293305465E-05  1.46617396687482E-01
 cg2d: Sum(rhs),rhsMax =  -1.20158092953085E-05  1.46623154918590E-01
 cg2d: Sum(rhs),rhsMax =  -1.10554679992698E-05  1.46628911894846E-01
 cg2d: Sum(rhs),rhsMax =  -1.00969246233642E-05  1.46634667603823E-01
 cg2d: Sum(rhs),rhsMax =  -9.14019845290551E-06  1.46640422033075E-01
 cg2d: Sum(rhs),rhsMax =  -8.18530870774943E-06  1.46646175170138E-01
 cg2d: Sum(rhs),rhsMax =  -7.23227499554654E-06  1.46651927002528E-01
 cg2d: Sum(rhs),rhsMax =  -6.18716754639554E-06  1.46657677295206E-01
 cg2d: Sum(rhs),rhsMax =  -5.14431322402083E-06  1.46663426490811E-01
 cg2d: Sum(rhs),rhsMax =  -4.10380312687239E-06  1.46669174341438E-01
 cg2d: Sum(rhs),rhsMax =  -3.06562963500213E-06  1.46674920833129E-01
 cg2d: Sum(rhs),rhsMax =  -2.02980942931065E-06  1.46680665958374E-01
 cg2d: Sum(rhs),rhsMax =  -9.96362582354401E-07  1.46686409705691E-01
 cg2d: Sum(rhs),rhsMax =   3.46894810454926E-08  1.46692152061592E-01
 cg2d: Sum(rhs),rhsMax =   1.06332464135366E-06  1.46697893012547E-01
 cg2d: Sum(rhs),rhsMax =   2.08952154418483E-06  1.46703632545472E-01
 cg2d: Sum(rhs),rhsMax =   3.11325943875944E-06  1.46709370647599E-01
 cg2d: Sum(rhs),rhsMax =   4.13451783583350E-06  1.46715107306291E-01
 cg2d: Sum(rhs),rhsMax =   5.15327641307378E-06  1.46720842508926E-01
 cg2d: Sum(rhs),rhsMax =   6.16951471743912E-06  1.46726576242850E-01
 cg2d: Sum(rhs),rhsMax =   7.18321197756139E-06  1.46732308495354E-01
 cg2d: Sum(rhs),rhsMax =   8.19434734445311E-06  1.46738039253680E-01
 cg2d: Sum(rhs),rhsMax =   9.20289979005826E-06  1.46743768505034E-01
 cg2d: Sum(rhs),rhsMax =   1.02088484883389E-05  1.46749496236602E-01
 cg2d: Sum(rhs),rhsMax =   1.12121725486924E-05  1.46755222435554E-01
 cg2d: Sum(rhs),rhsMax =   1.22128510329812E-05  1.46760947089052E-01
 cg2d: Sum(rhs),rhsMax =   1.32108630171972E-05  1.46766670184246E-01
 cg2d: Sum(rhs),rhsMax =   1.42061874141433E-05  1.46772391708261E-01
 cg2d: Sum(rhs),rhsMax =   1.51988033683919E-05  1.46778111648213E-01
 cg2d: Sum(rhs),rhsMax =   1.61886898226568E-05  1.46783829991190E-01
 cg2d: Sum(rhs),rhsMax =   1.72652760520023E-05  1.46789546959713E-01
 cg2d: Sum(rhs),rhsMax =   1.83385659919284E-05  1.46795262075944E-01
 cg2d: Sum(rhs),rhsMax =   1.94085953274629E-05  1.46800975554789E-01
 cg2d: Sum(rhs),rhsMax =   2.04753251744584E-05  1.46806687378933E-01
 cg2d: Sum(rhs),rhsMax =   2.15387367440015E-05  1.46812397542281E-01
 cg2d: Sum(rhs),rhsMax =   2.25988092618593E-05  1.46818106033171E-01
 cg2d: Sum(rhs),rhsMax =   2.36555204131805E-05  1.46823812837710E-01
 cg2d: Sum(rhs),rhsMax =   2.47088473555972E-05  1.46829517941830E-01
 cg2d: Sum(rhs),rhsMax =   2.57587673490002E-05  1.46835221331879E-01
 cg2d: Sum(rhs),rhsMax =   2.68052584808057E-05  1.46840922994588E-01
 cg2d: Sum(rhs),rhsMax =   2.78482991763933E-05  1.46846622916895E-01
 cg2d: Sum(rhs),rhsMax =   2.88878679278078E-05  1.46852321085805E-01
 cg2d: Sum(rhs),rhsMax =   2.99239430726394E-05  1.46858017488289E-01
(PID.TID 0000.0001)      cg2d_init_res =   1.38181486241113E-03
(PID.TID 0000.0001)      cg2d_iters(min,last) =      -1      73
(PID.TID 0000.0001)      cg2d_last_res =   9.56754587837789E-08
(PID.TID 0000.0001) // =======================================================
(PID.TID 0000.0001) // Begin MONITOR dynamic field statistics
(PID.TID 0000.0001) // =======================================================
(PID.TID 0000.0001) %MON time_tsnumber                =                  4680
(PID.TID 0000.0001) %MON time_secondsf                =   5.6160000000000E+06
(PID.TID 0000.0001) %MON dynstat_eta_max              =   5.1689148337970E-02
(PID.TID 0000.0001) %MON dynstat_eta_min              =  -2.3447996325240E-02
(PID.TID 0000.0001) %MON dynstat_eta_mean             =  -2.2731934670201E-08
(PID.TID 0000.0001) %MON dynstat_eta_sd               =   1.7972452774303E-02
(PID.TID 0000.0001) %MON dynstat_eta_del2             =   1.8236039550123E-05
(PID.TID 0000.0001) %MON dynstat_uvel_max             =   2.7578044872935E-02
(PID.TID 0000.0001) %MON dynstat_uvel_min             =  -1.4220764379776E-02
(PID.TID 0000.0001) %MON dynstat_uvel_mean            =  -2.3462137276500E-07
(PID.TID 0000.0001) %MON dynstat_uvel_sd              =   7.1382928652615E-03
(PID.TID 0000.0001) %MON dynstat_uvel_del2            =   7.9196559757970E-06
(PID.TID 0000.0001) %MON dynstat_vvel_max             =   8.8646593739558E-02
(PID.TID 0000.0001) %MON dynstat_vvel_min             =  -3.3348071795081E-02
(PID.TID 0000.0001) %MON dynstat_vvel_mean            =  -1.2975348896763E-08
(PID.TID 0000.0001) %MON dynstat_vvel_sd              =   1.5787526429844E-02
(PID.TID 0000.0001) %MON dynstat_vvel_del2            =   7.2241308479495E-05
(PID.TID 0000.0001) %MON dynstat_wvel_max             =   2.1072540584137E-08
(PID.TID 0000.0001) %MON dynstat_wvel_min             =  -1.2980798401986E-08
(PID.TID 0000.0001) %MON dynstat_wvel_mean            =   4.0715355630204E-21
(PID.TID 0000.0001) %MON dynstat_wvel_sd              =   7.4356203944550E-09
(PID.TID 0000.0001) %MON dynstat_wvel_del2            =   3.6686300652369E-12
(PID.TID 0000.0001) %MON dynstat_theta_max            =   2.0000000000000E+01
(PID.TID 0000.0001) %MON dynstat_theta_min            =   2.0000000000000E+01
(PID.TID 0000.0001) %MON dynstat_theta_mean           =   2.0000000000000E+01
(PID.TID 0000.0001) %MON dynstat_theta_sd             =   0.0000000000000E+00
(PID.TID 0000.0001) %MON dynstat_theta_del2           =   0.0000000000000E+00
(PID.TID 0000.0001) %MON dynstat_salt_max             =   3.0000000000000E+01
(PID.TID 0000.0001) %MON dynstat_salt_min             =   3.0000000000000E+01
(PID.TID 0000.0001) %MON dynstat_salt_mean            =   3.0000000000000E+01
(PID.TID 0000.0001) %MON dynstat_salt_sd              =   0.0000000000000E+00
(PID.TID 0000.0001) %MON dynstat_salt_del2            =   0.0000000000000E+00
(PID.TID 0000.0001) %MON trAdv_CFL_u_max              =   1.6545298979274E-03
(PID.TID 0000.0001) %MON trAdv_CFL_v_max              =   5.3187161251972E-03
(PID.TID 0000.0001) %MON trAdv_CFL_w_max              =   5.0580982181942E-09
(PID.TID 0000.0001) %MON advcfl_uvel_max              =   1.6546826923761E-03
(PID.TID 0000.0001) %MON advcfl_vvel_max              =   5.3187956243735E-03
(PID.TID 0000.0001) %MON advcfl_wvel_max              =   1.0114819480386E-08
(PID.TID 0000.0001) %MON advcfl_W_hf_max              =   0.0000000000000E+00
(PID.TID 0000.0001) %MON pe_b_mean                    =   3.1687188660930E-07
(PID.TID 0000.0001) %MON ke_max                       =   3.9239298266875E-03
(PID.TID 0000.0001) %MON ke_mean                      =   1.4759893113042E-04
(PID.TID 0000.0001) %MON ke_vol                       =   7.2000000000000E+15
(PID.TID 0000.0001) %MON vort_r_min                   =  -1.4944450367049E-06
(PID.TID 0000.0001) %MON vort_r_max                   =   2.4115916415913E-06
(PID.TID 0000.0001) %MON vort_a_mean                  =   1.0600000000000E-04
(PID.TID 0000.0001) %MON vort_a_sd                    =   3.5370914773503E-06
(PID.TID 0000.0001) %MON vort_p_mean                  =   1.1130000000000E-04
(PID.TID 0000.0001) %MON vort_p_sd                    =   4.1152295590901E-05
(PID.TID 0000.0001) %MON surfExpan_theta_mean         =   8.1428829111650E-20
(PID.TID 0000.0001) %MON surfExpan_salt_mean          =   1.2214371736263E-19
(PID.TID 0000.0001) // =======================================================
(PID.TID 0000.0001) // End MONITOR dynamic field statistics
(PID.TID 0000.0001) // =======================================================
 cg2d: Sum(rhs),rhsMax =   3.09565029162932E-05  1.46863712111255E-01
 cg2d: Sum(rhs),rhsMax =   3.19855254698126E-05  1.46869404941540E-01
 cg2d: Sum(rhs),rhsMax =   3.30109889527929E-05  1.46875095965939E-01
 cg2d: Sum(rhs),rhsMax =   3.40328713922412E-05  1.46880785171224E-01
 cg2d: Sum(rhs),rhsMax =   3.50511509299252E-05  1.46886472544156E-01
 cg2d: Sum(rhs),rhsMax =   3.60658058466230E-05  1.46892158071496E-01
 cg2d: Sum(rhs),rhsMax =   3.70768143551359E-05  1.46897841739991E-01
 cg2d: Sum(rhs),rhsMax =   3.80841545702089E-05  1.46903523536375E-01
 cg2d: Sum(rhs),rhsMax =   3.90878048169311E-05  1.46909203447364E-01
 cg2d: Sum(rhs),rhsMax =   4.00877430871251E-05  1.46914881459651E-01
 cg2d: Sum(rhs),rhsMax =   4.10839476906845E-05  1.46920557559913E-01
 cg2d: Sum(rhs),rhsMax =   4.20763968119534E-05  1.46926231734812E-01
 cg2d: Sum(rhs),rhsMax =   4.30650686075807E-05  1.46931903970990E-01
 cg2d: Sum(rhs),rhsMax =   4.40499414036009E-05  1.46937574255080E-01
 cg2d: Sum(rhs),rhsMax =   4.50309933235776E-05  1.46943242573692E-01
 cg2d: Sum(rhs),rhsMax =   4.60870833033358E-05  1.46948908680403E-01
 cg2d: Sum(rhs),rhsMax =   4.71387647030608E-05  1.46954573062978E-01
 cg2d: Sum(rhs),rhsMax =   4.81859490314663E-05  1.46960235413373E-01
 cg2d: Sum(rhs),rhsMax =   4.92286320553066E-05  1.46965895736374E-01
 cg2d: Sum(rhs),rhsMax =   5.02667940484114E-05  1.46971554027926E-01
 cg2d: Sum(rhs),rhsMax =   5.13004153845148E-05  1.46977210275836E-01
 cg2d: Sum(rhs),rhsMax =   5.23294754871612E-05  1.46982864465786E-01
 cg2d: Sum(rhs),rhsMax =   5.33539529198376E-05  1.46988516583182E-01
 cg2d: Sum(rhs),rhsMax =   5.43738262187158E-05  1.46994166613778E-01
 cg2d: Sum(rhs),rhsMax =   5.53890739897929E-05  1.46999814543750E-01
 cg2d: Sum(rhs),rhsMax =   5.63996753831682E-05  1.47005460359560E-01
 cg2d: Sum(rhs),rhsMax =   5.74056094339607E-05  1.47011104047777E-01
 cg2d: Sum(rhs),rhsMax =   5.84068553182064E-05  1.47016745594951E-01
 cg2d: Sum(rhs),rhsMax =   5.94033922375579E-05  1.47022384987549E-01
 cg2d: Sum(rhs),rhsMax =   6.03951993950894E-05  1.47028022211957E-01
 cg2d: Sum(rhs),rhsMax =   6.13822559155271E-05  1.47033657254509E-01
 cg2d: Sum(rhs),rhsMax =   6.23645410239241E-05  1.47039290101515E-01
 cg2d: Sum(rhs),rhsMax =   6.33420340806603E-05  1.47044920739281E-01
 cg2d: Sum(rhs),rhsMax =   6.43147145026725E-05  1.47050549154114E-01
 cg2d: Sum(rhs),rhsMax =   6.52825615301980E-05  1.47056175332317E-01
 cg2d: Sum(rhs),rhsMax =   6.62455547342216E-05  1.47061799260175E-01
 cg2d: Sum(rhs),rhsMax =   6.72630218255463E-05  1.47067421068966E-01
 cg2d: Sum(rhs),rhsMax =   6.82750021495041E-05  1.47073040494351E-01
 cg2d: Sum(rhs),rhsMax =   6.92815229184351E-05  1.47078657593526E-01
 cg2d: Sum(rhs),rhsMax =   7.02825403534058E-05  1.47084272380188E-01
 cg2d: Sum(rhs),rhsMax =   7.12780363507836E-05  1.47089884848675E-01
 cg2d: Sum(rhs),rhsMax =   7.22679941831282E-05  1.47095494986339E-01
 cg2d: Sum(rhs),rhsMax =   7.32523971344419E-05  1.47101102778774E-01
 cg2d: Sum(rhs),rhsMax =   7.42312274035076E-05  1.47106708211193E-01
 cg2d: Sum(rhs),rhsMax =   7.52044668930621E-05  1.47112311269041E-01
 cg2d: Sum(rhs),rhsMax =   7.61720972752532E-05  1.47117911938163E-01
 cg2d: Sum(rhs),rhsMax =   7.71341005892994E-05  1.47123510204695E-01
 cg2d: Sum(rhs),rhsMax =   7.80904591201007E-05  1.47129106054897E-01
 cg2d: Sum(rhs),rhsMax =   7.90411550012724E-05  1.47134699475001E-01
 cg2d: Sum(rhs),rhsMax =   7.99861706057333E-05  1.47140290451163E-01
 cg2d: Sum(rhs),rhsMax =   8.09254884570889E-05  1.47145878969450E-01
 cg2d: Sum(rhs),rhsMax =   8.18590911028103E-05  1.47151465015873E-01
 cg2d: Sum(rhs),rhsMax =   8.27869611736880E-05  1.47157048576431E-01
 cg2d: Sum(rhs),rhsMax =   8.37090813929648E-05  1.47162629637113E-01
 cg2d: Sum(rhs),rhsMax =   8.46254346720809E-05  1.47168208183922E-01
 cg2d: Sum(rhs),rhsMax =   8.55360037743643E-05  1.47173784202849E-01
 cg2d: Sum(rhs),rhsMax =   8.64407717725366E-05  1.47179357679878E-01
 cg2d: Sum(rhs),rhsMax =   8.73397217617334E-05  1.47184928600974E-01
 cg2d: Sum(rhs),rhsMax =   8.82328368930329E-05  1.47190496952084E-01
 cg2d: Sum(rhs),rhsMax =   8.91201004467731E-05  1.47196062719139E-01
 cg2d: Sum(rhs),rhsMax =   9.00014958493773E-05  1.47201625888055E-01
 cg2d: Sum(rhs),rhsMax =   9.08770065557356E-05  1.47207186444733E-01
 cg2d: Sum(rhs),rhsMax =   9.17466161524704E-05  1.47212744375064E-01
 cg2d: Sum(rhs),rhsMax =   9.26566777875630E-05  1.47218299617463E-01
 cg2d: Sum(rhs),rhsMax =   9.35603266782941E-05  1.47223852283073E-01
 cg2d: Sum(rhs),rhsMax =   9.44574901793225E-05  1.47229402255073E-01
 cg2d: Sum(rhs),rhsMax =   9.53481595668357E-05  1.47234949538942E-01
 cg2d: Sum(rhs),rhsMax =   9.62323207288835E-05  1.47240494126432E-01
 cg2d: Sum(rhs),rhsMax =   9.71099628266445E-05  1.47246036004583E-01
 cg2d: Sum(rhs),rhsMax =   9.79810751049401E-05  1.47251575158860E-01
 cg2d: Sum(rhs),rhsMax =   9.88456458259380E-05  1.47257111574150E-01
 cg2d: Sum(rhs),rhsMax =   9.97036623353771E-05  1.47262645235460E-01
(PID.TID 0000.0001)      cg2d_init_res =   1.36636459963185E-03
(PID.TID 0000.0001)      cg2d_iters(min,last) =      -1      70
(PID.TID 0000.0001)      cg2d_last_res =   9.61867413781182E-08
(PID.TID 0000.0001) // =======================================================
(PID.TID 0000.0001) // Begin MONITOR dynamic field statistics
(PID.TID 0000.0001) // =======================================================
(PID.TID 0000.0001) %MON time_tsnumber                =                  4752
(PID.TID 0000.0001) %MON time_secondsf                =   5.7024000000000E+06
(PID.TID 0000.0001) %MON dynstat_eta_max              =   5.1513668988645E-02
(PID.TID 0000.0001) %MON dynstat_eta_min              =  -2.3537674128976E-02
(PID.TID 0000.0001) %MON dynstat_eta_mean             =  -7.4042839663289E-08
(PID.TID 0000.0001) %MON dynstat_eta_sd               =   1.8230895185016E-02
(PID.TID 0000.0001) %MON dynstat_eta_del2             =   1.8288001321292E-05
(PID.TID 0000.0001) %MON dynstat_uvel_max             =   2.7762963412524E-02
(PID.TID 0000.0001) %MON dynstat_uvel_min             =  -1.4552560535001E-02
(PID.TID 0000.0001) %MON dynstat_uvel_mean            =  -2.4436342016850E-07
(PID.TID 0000.0001) %MON dynstat_uvel_sd              =   7.1984415000227E-03
(PID.TID 0000.0001) %MON dynstat_uvel_del2            =   7.9927657570121E-06
(PID.TID 0000.0001) %MON dynstat_vvel_max             =   8.8740427210076E-02
(PID.TID 0000.0001) %MON dynstat_vvel_min             =  -3.3328687929048E-02
(PID.TID 0000.0001) %MON dynstat_vvel_mean            =  -1.2071757484327E-08
(PID.TID 0000.0001) %MON dynstat_vvel_sd              =   1.5797642617536E-02
(PID.TID 0000.0001) %MON dynstat_vvel_del2            =   7.2524551333332E-05
(PID.TID 0000.0001) %MON dynstat_wvel_max             =   2.0739856244181E-08
(PID.TID 0000.0001) %MON dynstat_wvel_min             =  -1.3717047479004E-08
(PID.TID 0000.0001) %MON dynstat_wvel_mean            =   8.2821142339324E-22
(PID.TID 0000.0001) %MON dynstat_wvel_sd              =   7.4253898701210E-09
(PID.TID 0000.0001) %MON dynstat_wvel_del2            =   3.6349223810580E-12
(PID.TID 0000.0001) %MON dynstat_theta_max            =   2.0000000000000E+01
(PID.TID 0000.0001) %MON dynstat_theta_min            =   2.0000000000000E+01
(PID.TID 0000.0001) %MON dynstat_theta_mean           =   2.0000000000000E+01
(PID.TID 0000.0001) %MON dynstat_theta_sd             =   0.0000000000000E+00
(PID.TID 0000.0001) %MON dynstat_theta_del2           =   0.0000000000000E+00
(PID.TID 0000.0001) %MON dynstat_salt_max             =   3.0000000000000E+01
(PID.TID 0000.0001) %MON dynstat_salt_min             =   3.0000000000000E+01
(PID.TID 0000.0001) %MON dynstat_salt_mean            =   3.0000000000000E+01
(PID.TID 0000.0001) %MON dynstat_salt_sd              =   0.0000000000000E+00
(PID.TID 0000.0001) %MON dynstat_salt_del2            =   0.0000000000000E+00
(PID.TID 0000.0001) %MON trAdv_CFL_u_max              =   1.6656225858543E-03
(PID.TID 0000.0001) %MON trAdv_CFL_v_max              =   5.3243489784777E-03
(PID.TID 0000.0001) %MON trAdv_CFL_w_max              =   4.9790192535147E-09
(PID.TID 0000.0001) %MON advcfl_uvel_max              =   1.6657778047514E-03
(PID.TID 0000.0001) %MON advcfl_vvel_max              =   5.3244256326046E-03
(PID.TID 0000.0001) %MON advcfl_wvel_max              =   9.9551309972070E-09
(PID.TID 0000.0001) %MON advcfl_W_hf_max              =   0.0000000000000E+00
(PID.TID 0000.0001) %MON pe_b_mean                    =   3.2605059400672E-07
(PID.TID 0000.0001) %MON ke_max                       =   3.9327480652024E-03
(PID.TID 0000.0001) %MON ke_mean                      =   1.4818001057724E-04
(PID.TID 0000.0001) %MON ke_vol                       =   7.2000000000000E+15
(PID.TID 0000.0001) %MON vort_r_min                   =  -1.5025047889596E-06
(PID.TID 0000.0001) %MON vort_r_max                   =   2.4187345781324E-06
(PID.TID 0000.0001) %MON vort_a_mean                  =   1.0600000000000E-04
(PID.TID 0000.0001) %MON vort_a_sd                    =   3.5372033348981E-06
(PID.TID 0000.0001) %MON vort_p_mean                  =   1.1130000000000E-04
(PID.TID 0000.0001) %MON vort_p_sd                    =   4.1152379890042E-05
(PID.TID 0000.0001) %MON surfExpan_theta_mean         =   1.6564013740863E-20
(PID.TID 0000.0001) %MON surfExpan_salt_mean          =   2.4846336716461E-20
(PID.TID 0000.0001) // =======================================================
(PID.TID 0000.0001) // End MONITOR dynamic field statistics
(PID.TID 0000.0001) // =======================================================
 cg2d: Sum(rhs),rhsMax =   1.00555111906784E-04  1.47268176128194E-01
 cg2d: Sum(rhs),rhsMax =   1.01399981892778E-04  1.47273704238098E-01
 cg2d: Sum(rhs),rhsMax =   1.02238259918771E-04  1.47279229551059E-01
 cg2d: Sum(rhs),rhsMax =   1.03069933540175E-04  1.47284752052959E-01
 cg2d: Sum(rhs),rhsMax =   1.03894990957749E-04  1.47290271729596E-01
 cg2d: Sum(rhs),rhsMax =   1.04713420058765E-04  1.47295788566673E-01
 cg2d: Sum(rhs),rhsMax =   1.05525209117750E-04  1.47301302549835E-01
 cg2d: Sum(rhs),rhsMax =   1.06330346450133E-04  1.47306813664713E-01
 cg2d: Sum(rhs),rhsMax =   1.07128820422632E-04  1.47312321896932E-01
 cg2d: Sum(rhs),rhsMax =   1.07920619707248E-04  1.47317827232127E-01
 cg2d: Sum(rhs),rhsMax =   1.08705732787030E-04  1.47323329655933E-01
 cg2d: Sum(rhs),rhsMax =   1.09484148517780E-04  1.47328829153975E-01
 cg2d: Sum(rhs),rhsMax =   1.10255855762601E-04  1.47334325711860E-01
 cg2d: Sum(rhs),rhsMax =   1.11020843539051E-04  1.47339819315181E-01
 cg2d: Sum(rhs),rhsMax =   1.11779100981819E-04  1.47345309949513E-01
 cg2d: Sum(rhs),rhsMax =   1.12530617431283E-04  1.47350797600418E-01
 cg2d: Sum(rhs),rhsMax =   1.13275382158644E-04  1.47356282253449E-01
 cg2d: Sum(rhs),rhsMax =   1.14013384711819E-04  1.47361763894147E-01
 cg2d: Sum(rhs),rhsMax =   1.14744614689229E-04  1.47367242508041E-01
 cg2d: Sum(rhs),rhsMax =   1.15469061837315E-04  1.47372718080647E-01
 cg2d: Sum(rhs),rhsMax =   1.16186716104666E-04  1.47378190597471E-01
 cg2d: Sum(rhs),rhsMax =   1.16897567482810E-04  1.47383660044005E-01
 cg2d: Sum(rhs),rhsMax =   1.17601605863313E-04  1.47389126405731E-01
 cg2d: Sum(rhs),rhsMax =   1.18298821788701E-04  1.47394589668115E-01
 cg2d: Sum(rhs),rhsMax =   1.18989205558968E-04  1.47400049816615E-01
 cg2d: Sum(rhs),rhsMax =   1.19672747623541E-04  1.47405506836676E-01
 cg2d: Sum(rhs),rhsMax =   1.20349438506293E-04  1.47410960713730E-01
 cg2d: Sum(rhs),rhsMax =   1.21019269122962E-04  1.47416411433202E-01
 cg2d: Sum(rhs),rhsMax =   1.21682230259807E-04  1.47421858980499E-01
 cg2d: Sum(rhs),rhsMax =   1.22338312885899E-04  1.47427303341021E-01
 cg2d: Sum(rhs),rhsMax =   1.22987508166362E-04  1.47432744500156E-01
 cg2d: Sum(rhs),rhsMax =   1.23629807307828E-04  1.47438182443277E-01
 cg2d: Sum(rhs),rhsMax =   1.24265201666331E-04  1.47443617155751E-01
 cg2d: Sum(rhs),rhsMax =   1.24893682768951E-04  1.47449048622930E-01
 cg2d: Sum(rhs),rhsMax =   1.25515242176476E-04  1.47454476830154E-01
 cg2d: Sum(rhs),rhsMax =   1.26129871690296E-04  1.47459901762757E-01
 cg2d: Sum(rhs),rhsMax =   1.26737563125661E-04  1.47465323406056E-01
 cg2d: Sum(rhs),rhsMax =   1.27338308466545E-04  1.47470741745360E-01
 cg2d: Sum(rhs),rhsMax =   1.27957435840075E-04  1.47476157032233E-01
 cg2d: Sum(rhs),rhsMax =   1.28569235584635E-04  1.47481568743860E-01
 cg2d: Sum(rhs),rhsMax =   1.29173696648774E-04  1.47486977084214E-01
 cg2d: Sum(rhs),rhsMax =   1.29770797864226E-04  1.47492382058194E-01
 cg2d: Sum(rhs),rhsMax =   1.30360533138755E-04  1.47497783654539E-01
 cg2d: Sum(rhs),rhsMax =   1.30942900384999E-04  1.47503181860031E-01
 cg2d: Sum(rhs),rhsMax =   1.31517897217747E-04  1.47508576659884E-01
 cg2d: Sum(rhs),rhsMax =   1.32085519889583E-04  1.47513968038561E-01
 cg2d: Sum(rhs),rhsMax =   1.32645763696598E-04  1.47519355980541E-01
 cg2d: Sum(rhs),rhsMax =   1.33198623663669E-04  1.47524740470675E-01
 cg2d: Sum(rhs),rhsMax =   1.33744095223228E-04  1.47530121494143E-01
 cg2d: Sum(rhs),rhsMax =   1.34282173754509E-04  1.47535499036279E-01
 cg2d: Sum(rhs),rhsMax =   1.34812855154349E-04  1.47540873082413E-01
 cg2d: Sum(rhs),rhsMax =   1.35336135161989E-04  1.47546243617790E-01
 cg2d: Sum(rhs),rhsMax =   1.35852009800375E-04  1.47551610627569E-01
 cg2d: Sum(rhs),rhsMax =   1.36360475208651E-04  1.47556974096858E-01
 cg2d: Sum(rhs),rhsMax =   1.36861527410849E-04  1.47562334010745E-01
 cg2d: Sum(rhs),rhsMax =   1.37355162658825E-04  1.47567690354325E-01
 cg2d: Sum(rhs),rhsMax =   1.37841377309320E-04  1.47573043112701E-01
 cg2d: Sum(rhs),rhsMax =   1.38320167696456E-04  1.47578392270979E-01
 cg2d: Sum(rhs),rhsMax =   1.38791530251690E-04  1.47583737814260E-01
 cg2d: Sum(rhs),rhsMax =   1.39255461533559E-04  1.47589079727627E-01
 cg2d: Sum(rhs),rhsMax =   1.39711958211905E-04  1.47594417996153E-01
 cg2d: Sum(rhs),rhsMax =   1.40161017182786E-04  1.47599752604896E-01
 cg2d: Sum(rhs),rhsMax =   1.40602634829466E-04  1.47605083538903E-01
 cg2d: Sum(rhs),rhsMax =   1.41036808307486E-04  1.47610410783214E-01
 cg2d: Sum(rhs),rhsMax =   1.41463534449038E-04  1.47615734322857E-01
 cg2d: Sum(rhs),rhsMax =   1.41882810266440E-04  1.47621054142856E-01
 cg2d: Sum(rhs),rhsMax =   1.42294632697449E-04  1.47626370228223E-01
 cg2d: Sum(rhs),rhsMax =   1.42698999023713E-04  1.47631682563960E-01
 cg2d: Sum(rhs),rhsMax =   1.43095906252721E-04  1.47636991135061E-01
 cg2d: Sum(rhs),rhsMax =   1.43485351702884E-04  1.47642295926511E-01
 cg2d: Sum(rhs),rhsMax =   1.43867332592714E-04  1.47647596923283E-01
 cg2d: Sum(rhs),rhsMax =   1.44241846216656E-04  1.47652894110343E-01
(PID.TID 0000.0001)      cg2d_init_res =   1.35124159216651E-03
(PID.TID 0000.0001)      cg2d_iters(min,last) =      -1      69
(PID.TID 0000.0001)      cg2d_last_res =   8.99895633932513E-08
(PID.TID 0000.0001) // =======================================================
(PID.TID 0000.0001) // Begin MONITOR dynamic field statistics
(PID.TID 0000.0001) // =======================================================
(PID.TID 0000.0001) %MON time_tsnumber                =                  4824
(PID.TID 0000.0001) %MON time_secondsf                =   5.7888000000000E+06
(PID.TID 0000.0001) %MON dynstat_eta_max              =   5.1385768052266E-02
(PID.TID 0000.0001) %MON dynstat_eta_min              =  -2.3586783885708E-02
(PID.TID 0000.0001) %MON dynstat_eta_mean             =  -1.0676343289365E-07
(PID.TID 0000.0001) %MON dynstat_eta_sd               =   1.8481487097320E-02
(PID.TID 0000.0001) %MON dynstat_eta_del2             =   1.8336709459428E-05
(PID.TID 0000.0001) %MON dynstat_uvel_max             =   2.7950221781580E-02
(PID.TID 0000.0001) %MON dynstat_uvel_min             =  -1.4874480136662E-02
(PID.TID 0000.0001) %MON dynstat_uvel_mean            =  -2.5036724819144E-07
(PID.TID 0000.0001) %MON dynstat_uvel_sd              =   7.2505883508210E-03
(PID.TID 0000.0001) %MON dynstat_uvel_del2            =   8.0588134617995E-06
(PID.TID 0000.0001) %MON dynstat_vvel_max             =   8.8829781921606E-02
(PID.TID 0000.0001) %MON dynstat_vvel_min             =  -3.3334004758525E-02
(PID.TID 0000.0001) %MON dynstat_vvel_mean            =  -1.1044095086659E-08
(PID.TID 0000.0001) %MON dynstat_vvel_sd              =   1.5809942255067E-02
(PID.TID 0000.0001) %MON dynstat_vvel_del2            =   7.2806972119345E-05
(PID.TID 0000.0001) %MON dynstat_wvel_max             =   2.0273027905787E-08
(PID.TID 0000.0001) %MON dynstat_wvel_min             =  -1.4436850307393E-08
(PID.TID 0000.0001) %MON dynstat_wvel_mean            =   1.1897503268996E-21
(PID.TID 0000.0001) %MON dynstat_wvel_sd              =   7.4115485140231E-09
(PID.TID 0000.0001) %MON dynstat_wvel_del2            =   3.5954095549966E-12
(PID.TID 0000.0001) %MON dynstat_theta_max            =   2.0000000000000E+01
(PID.TID 0000.0001) %MON dynstat_theta_min            =   2.0000000000000E+01
(PID.TID 0000.0001) %MON dynstat_theta_mean           =   2.0000000000000E+01
(PID.TID 0000.0001) %MON dynstat_theta_sd             =   0.0000000000000E+00
(PID.TID 0000.0001) %MON dynstat_theta_del2           =   0.0000000000000E+00
(PID.TID 0000.0001) %MON dynstat_salt_max             =   3.0000000000000E+01
(PID.TID 0000.0001) %MON dynstat_salt_min             =   3.0000000000000E+01
(PID.TID 0000.0001) %MON dynstat_salt_mean            =   3.0000000000000E+01
(PID.TID 0000.0001) %MON dynstat_salt_sd              =   0.0000000000000E+00
(PID.TID 0000.0001) %MON dynstat_salt_del2            =   0.0000000000000E+00
(PID.TID 0000.0001) %MON trAdv_CFL_u_max              =   1.6768566151338E-03
(PID.TID 0000.0001) %MON trAdv_CFL_v_max              =   5.3297149028464E-03
(PID.TID 0000.0001) %MON trAdv_CFL_w_max              =   4.8668545210501E-09
(PID.TID 0000.0001) %MON advcfl_uvel_max              =   1.6770133068948E-03
(PID.TID 0000.0001) %MON advcfl_vvel_max              =   5.3297869152964E-03
(PID.TID 0000.0001) %MON advcfl_wvel_max              =   9.7310533947777E-09
(PID.TID 0000.0001) %MON advcfl_W_hf_max              =   0.0000000000000E+00
(PID.TID 0000.0001) %MON pe_b_mean                    =   3.3507562339836E-07
(PID.TID 0000.0001) %MON ke_max                       =   3.9427365953159E-03
(PID.TID 0000.0001) %MON ke_mean                      =   1.4874160858884E-04
(PID.TID 0000.0001) %MON ke_vol                       =   7.2000000000000E+15
(PID.TID 0000.0001) %MON vort_r_min                   =  -1.5100267665098E-06
(PID.TID 0000.0001) %MON vort_r_max                   =   2.4258340025712E-06
(PID.TID 0000.0001) %MON vort_a_mean                  =   1.0600000000000E-04
(PID.TID 0000.0001) %MON vort_a_sd                    =   3.5373134252524E-06
(PID.TID 0000.0001) %MON vort_p_mean                  =   1.1130000000000E-04
(PID.TID 0000.0001) %MON vort_p_sd                    =   4.1152441540699E-05
(PID.TID 0000.0001) %MON surfExpan_theta_mean         =   2.3798247323409E-20
(PID.TID 0000.0001) %MON surfExpan_salt_mean          =   3.5697055188343E-20
(PID.TID 0000.0001) // =======================================================
(PID.TID 0000.0001) // End MONITOR dynamic field statistics
(PID.TID 0000.0001) // =======================================================
 cg2d: Sum(rhs),rhsMax =   1.44608889977260E-04  1.47658187472650E-01
 cg2d: Sum(rhs),rhsMax =   1.44968461130494E-04  1.47663476995150E-01
 cg2d: Sum(rhs),rhsMax =   1.45320557268488E-04  1.47668762662782E-01
 cg2d: Sum(rhs),rhsMax =   1.45665175765967E-04  1.47674044460476E-01
 cg2d: Sum(rhs),rhsMax =   1.46002314158080E-04  1.47679322373153E-01
 cg2d: Sum(rhs),rhsMax =   1.46331969930254E-04  1.47684596385725E-01
 cg2d: Sum(rhs),rhsMax =   1.46654140550178E-04  1.47689866483096E-01
 cg2d: Sum(rhs),rhsMax =   1.46968823508437E-04  1.47695132650162E-01
 cg2d: Sum(rhs),rhsMax =   1.47276016356121E-04  1.47700394871808E-01
 cg2d: Sum(rhs),rhsMax =   1.47575716633060E-04  1.47705653132911E-01
 cg2d: Sum(rhs),rhsMax =   1.47867921925000E-04  1.47710907418342E-01
 cg2d: Sum(rhs),rhsMax =   1.48152629575850E-04  1.47716157712959E-01
 cg2d: Sum(rhs),rhsMax =   1.48429837262474E-04  1.47721404001620E-01
 cg2d: Sum(rhs),rhsMax =   1.48699542262961E-04  1.47726646269165E-01
 cg2d: Sum(rhs),rhsMax =   1.48961742070136E-04  1.47731884500430E-01
 cg2d: Sum(rhs),rhsMax =   1.49216434215928E-04  1.47737118680245E-01
 cg2d: Sum(rhs),rhsMax =   1.49463615766278E-04  1.47742348793427E-01
 cg2d: Sum(rhs),rhsMax =   1.49703284155759E-04  1.47747574824790E-01
 cg2d: Sum(rhs),rhsMax =   1.49935436620106E-04  1.47752796759136E-01
 cg2d: Sum(rhs),rhsMax =   1.50160070392790E-04  1.47758014581262E-01
 cg2d: Sum(rhs),rhsMax =   1.50377182441591E-04  1.47763228275954E-01
 cg2d: Sum(rhs),rhsMax =   1.50586769682041E-04  1.47768437827993E-01
 cg2d: Sum(rhs),rhsMax =   1.50788829212978E-04  1.47773643222151E-01
 cg2d: Sum(rhs),rhsMax =   1.50983357650151E-04  1.47778844443191E-01
 cg2d: Sum(rhs),rhsMax =   1.51170351705462E-04  1.47784041475873E-01
 cg2d: Sum(rhs),rhsMax =   1.51349807965376E-04  1.47789234304942E-01
 cg2d: Sum(rhs),rhsMax =   1.51521722913814E-04  1.47794422915144E-01
 cg2d: Sum(rhs),rhsMax =   1.51686092612651E-04  1.47799607291210E-01
 cg2d: Sum(rhs),rhsMax =   1.51842913385781E-04  1.47804787417866E-01
 cg2d: Sum(rhs),rhsMax =   1.51992181085661E-04  1.47809963279835E-01
 cg2d: Sum(rhs),rhsMax =   1.52133891573162E-04  1.47815134861826E-01
 cg2d: Sum(rhs),rhsMax =   1.52268040432633E-04  1.47820302148544E-01
 cg2d: Sum(rhs),rhsMax =   1.52394622963114E-04  1.47825465124689E-01
 cg2d: Sum(rhs),rhsMax =   1.52513634430146E-04  1.47830623774949E-01
 cg2d: Sum(rhs),rhsMax =   1.52625069701095E-04  1.47835778084007E-01
 cg2d: Sum(rhs),rhsMax =   1.52728923471750E-04  1.47840928036542E-01
 cg2d: Sum(rhs),rhsMax =   1.52825190288123E-04  1.47846073617223E-01
 cg2d: Sum(rhs),rhsMax =   1.52913864365636E-04  1.47851214810710E-01
 cg2d: Sum(rhs),rhsMax =   1.52994939577515E-04  1.47856351601661E-01
 cg2d: Sum(rhs),rhsMax =   1.53068409613339E-04  1.47861483974724E-01
 cg2d: Sum(rhs),rhsMax =   1.53134267768731E-04  1.47866611914543E-01
 cg2d: Sum(rhs),rhsMax =   1.53192507152407E-04  1.47871735405751E-01
 cg2d: Sum(rhs),rhsMax =   1.53245325241490E-04  1.47876854511538E-01
 cg2d: Sum(rhs),rhsMax =   1.53290143894873E-04  1.47881969071145E-01
 cg2d: Sum(rhs),rhsMax =   1.53326920937260E-04  1.47887079127587E-01
 cg2d: Sum(rhs),rhsMax =   1.53355633527104E-04  1.47892184668544E-01
 cg2d: Sum(rhs),rhsMax =   1.53376273677651E-04  1.47897285682176E-01
 cg2d: Sum(rhs),rhsMax =   1.53388837347298E-04  1.47902382155979E-01
 cg2d: Sum(rhs),rhsMax =   1.53393318405865E-04  1.47907474075193E-01
 cg2d: Sum(rhs),rhsMax =   1.53389707280169E-04  1.47912561423674E-01
 cg2d: Sum(rhs),rhsMax =   1.53377992577810E-04  1.47917644185120E-01
 cg2d: Sum(rhs),rhsMax =   1.53358162873383E-04  1.47922722343645E-01
 cg2d: Sum(rhs),rhsMax =   1.53330206675835E-04  1.47927795883766E-01
 cg2d: Sum(rhs),rhsMax =   1.53294112481057E-04  1.47932864790190E-01
 cg2d: Sum(rhs),rhsMax =   1.53249868480544E-04  1.47937929047638E-01
 cg2d: Sum(rhs),rhsMax =   1.53197462435862E-04  1.47942988640756E-01
 cg2d: Sum(rhs),rhsMax =   1.53136881569742E-04  1.47948043554112E-01
 cg2d: Sum(rhs),rhsMax =   1.53068112874805E-04  1.47953093772219E-01
 cg2d: Sum(rhs),rhsMax =   1.52991143138916E-04  1.47958139279574E-01
 cg2d: Sum(rhs),rhsMax =   1.52905958619223E-04  1.47963180060678E-01
 cg2d: Sum(rhs),rhsMax =   1.52812545529398E-04  1.47968216100046E-01
 cg2d: Sum(rhs),rhsMax =   1.52704907986626E-04  1.47973247043820E-01
 cg2d: Sum(rhs),rhsMax =   1.52588627928298E-04  1.47978273547864E-01
 cg2d: Sum(rhs),rhsMax =   1.52463662781552E-04  1.47983295278009E-01
 cg2d: Sum(rhs),rhsMax =   1.52329988449638E-04  1.47988312198656E-01
 cg2d: Sum(rhs),rhsMax =   1.52187594146983E-04  1.47993324297435E-01
 cg2d: Sum(rhs),rhsMax =   1.52036473413187E-04  1.47998331562388E-01
 cg2d: Sum(rhs),rhsMax =   1.51876618585978E-04  1.48003333978974E-01
 cg2d: Sum(rhs),rhsMax =   1.51708019154986E-04  1.48008331530963E-01
 cg2d: Sum(rhs),rhsMax =   1.51530663843468E-04  1.48013324201896E-01
 cg2d: Sum(rhs),rhsMax =   1.51344541729713E-04  1.48018311975751E-01
 cg2d: Sum(rhs),rhsMax =   1.51149642993599E-04  1.48023294836925E-01
(PID.TID 0000.0001)      cg2d_init_res =   1.33659008372068E-03
(PID.TID 0000.0001)      cg2d_iters(min,last) =      -1      67
(PID.TID 0000.0001)      cg2d_last_res =   9.00046051999510E-08
(PID.TID 0000.0001) // =======================================================
(PID.TID 0000.0001) // Begin MONITOR dynamic field statistics
(PID.TID 0000.0001) // =======================================================
(PID.TID 0000.0001) %MON time_tsnumber                =                  4896
(PID.TID 0000.0001) %MON time_secondsf                =   5.8752000000000E+06
(PID.TID 0000.0001) %MON dynstat_eta_max              =   5.1334946889081E-02
(PID.TID 0000.0001) %MON dynstat_eta_min              =  -2.3594184163147E-02
(PID.TID 0000.0001) %MON dynstat_eta_mean             =  -1.1172134779611E-07
(PID.TID 0000.0001) %MON dynstat_eta_sd               =   1.8720520661081E-02
(PID.TID 0000.0001) %MON dynstat_eta_del2             =   1.8382394163869E-05
(PID.TID 0000.0001) %MON dynstat_uvel_max             =   2.8138624735692E-02
(PID.TID 0000.0001) %MON dynstat_uvel_min             =  -1.5164199975693E-02
(PID.TID 0000.0001) %MON dynstat_uvel_mean            =  -2.5257172236544E-07
(PID.TID 0000.0001) %MON dynstat_uvel_sd              =   7.2940408679865E-03
(PID.TID 0000.0001) %MON dynstat_uvel_del2            =   8.1172683181913E-06
(PID.TID 0000.0001) %MON dynstat_vvel_max             =   8.8912340187442E-02
(PID.TID 0000.0001) %MON dynstat_vvel_min             =  -3.3323927972096E-02
(PID.TID 0000.0001) %MON dynstat_vvel_mean            =  -9.9127940577420E-09
(PID.TID 0000.0001) %MON dynstat_vvel_sd              =   1.5824015382808E-02
(PID.TID 0000.0001) %MON dynstat_vvel_del2            =   7.3087758606115E-05
(PID.TID 0000.0001) %MON dynstat_wvel_max             =   1.9766638952424E-08
(PID.TID 0000.0001) %MON dynstat_wvel_min             =  -1.5133656242397E-08
(PID.TID 0000.0001) %MON dynstat_wvel_mean            =  -1.6341871382034E-21
(PID.TID 0000.0001) %MON dynstat_wvel_sd              =   7.3937445691210E-09
(PID.TID 0000.0001) %MON dynstat_wvel_del2            =   3.5615307159556E-12
(PID.TID 0000.0001) %MON dynstat_theta_max            =   2.0000000000000E+01
(PID.TID 0000.0001) %MON dynstat_theta_min            =   2.0000000000000E+01
(PID.TID 0000.0001) %MON dynstat_theta_mean           =   2.0000000000000E+01
(PID.TID 0000.0001) %MON dynstat_theta_sd             =   0.0000000000000E+00
(PID.TID 0000.0001) %MON dynstat_theta_del2           =   0.0000000000000E+00
(PID.TID 0000.0001) %MON dynstat_salt_max             =   3.0000000000000E+01
(PID.TID 0000.0001) %MON dynstat_salt_min             =   3.0000000000000E+01
(PID.TID 0000.0001) %MON dynstat_salt_mean            =   3.0000000000000E+01
(PID.TID 0000.0001) %MON dynstat_salt_sd              =   0.0000000000000E+00
(PID.TID 0000.0001) %MON dynstat_salt_del2            =   0.0000000000000E+00
(PID.TID 0000.0001) %MON trAdv_CFL_u_max              =   1.6881603559316E-03
(PID.TID 0000.0001) %MON trAdv_CFL_v_max              =   5.3346750946901E-03
(PID.TID 0000.0001) %MON trAdv_CFL_w_max              =   4.7460146030411E-09
(PID.TID 0000.0001) %MON advcfl_uvel_max              =   1.6883174841415E-03
(PID.TID 0000.0001) %MON advcfl_vvel_max              =   5.3347404112465E-03
(PID.TID 0000.0001) %MON advcfl_wvel_max              =   9.4879866971634E-09
(PID.TID 0000.0001) %MON advcfl_W_hf_max              =   0.0000000000000E+00
(PID.TID 0000.0001) %MON pe_b_mean                    =   3.4379919385159E-07
(PID.TID 0000.0001) %MON ke_max                       =   3.9520888410963E-03
(PID.TID 0000.0001) %MON ke_mean                      =   1.4927122674918E-04
(PID.TID 0000.0001) %MON ke_vol                       =   7.2000000000000E+15
(PID.TID 0000.0001) %MON vort_r_min                   =  -1.5179257763261E-06
(PID.TID 0000.0001) %MON vort_r_max                   =   2.4325413254395E-06
(PID.TID 0000.0001) %MON vort_a_mean                  =   1.0600000000000E-04
(PID.TID 0000.0001) %MON vort_a_sd                    =   3.5374211597640E-06
(PID.TID 0000.0001) %MON vort_p_mean                  =   1.1130000000000E-04
(PID.TID 0000.0001) %MON vort_p_sd                    =   4.1152481575184E-05
(PID.TID 0000.0001) %MON surfExpan_theta_mean         =  -3.2688123812679E-20
(PID.TID 0000.0001) %MON surfExpan_salt_mean          =  -4.9032975210947E-20
(PID.TID 0000.0001) // =======================================================
(PID.TID 0000.0001) // End MONITOR dynamic field statistics
(PID.TID 0000.0001) // =======================================================
 cg2d: Sum(rhs),rhsMax =   1.50945958758608E-04  1.48028272770015E-01
 cg2d: Sum(rhs),rhsMax =   1.50733480913014E-04  1.48033245759629E-01
 cg2d: Sum(rhs),rhsMax =   1.50512201877000E-04  1.48038213790313E-01
 cg2d: Sum(rhs),rhsMax =   1.50282114947902E-04  1.48043176846535E-01
 cg2d: Sum(rhs),rhsMax =   1.50043214472115E-04  1.48048134912716E-01
 cg2d: Sum(rhs),rhsMax =   1.49795495663489E-04  1.48053087973259E-01
 cg2d: Sum(rhs),rhsMax =   1.49538954972004E-04  1.48058036012570E-01
 cg2d: Sum(rhs),rhsMax =   1.49273590240654E-04  1.48062979015060E-01
 cg2d: Sum(rhs),rhsMax =   1.48999400536679E-04  1.48067916965153E-01
 cg2d: Sum(rhs),rhsMax =   1.48716386355622E-04  1.48072849847267E-01
 cg2d: Sum(rhs),rhsMax =   1.48424549802488E-04  1.48077777645821E-01
 cg2d: Sum(rhs),rhsMax =   1.48123894672897E-04  1.48082700345221E-01
 cg2d: Sum(rhs),rhsMax =   1.47814426382370E-04  1.48087617929867E-01
 cg2d: Sum(rhs),rhsMax =   1.47496152141760E-04  1.48092530384156E-01
 cg2d: Sum(rhs),rhsMax =   1.47169081025742E-04  1.48097437692478E-01
 cg2d: Sum(rhs),rhsMax =   1.46833224067555E-04  1.48102339839221E-01
 cg2d: Sum(rhs),rhsMax =   1.46488594084992E-04  1.48107236808773E-01
 cg2d: Sum(rhs),rhsMax =   1.46135206096952E-04  1.48112128585512E-01
 cg2d: Sum(rhs),rhsMax =   1.45773077032736E-04  1.48117015153818E-01
 cg2d: Sum(rhs),rhsMax =   1.45382930076677E-04  1.48121896825144E-01
 cg2d: Sum(rhs),rhsMax =   1.44983646048025E-04  1.48126772919631E-01
 cg2d: Sum(rhs),rhsMax =   1.44575276761708E-04  1.48131643769242E-01
 cg2d: Sum(rhs),rhsMax =   1.44157836468740E-04  1.48136509344622E-01
 cg2d: Sum(rhs),rhsMax =   1.43731341279499E-04  1.48141369630959E-01
 cg2d: Sum(rhs),rhsMax =   1.43295807163390E-04  1.48146224615931E-01
 cg2d: Sum(rhs),rhsMax =   1.42851251903810E-04  1.48151074284819E-01
 cg2d: Sum(rhs),rhsMax =   1.42397695030558E-04  1.48155918621339E-01
 cg2d: Sum(rhs),rhsMax =   1.41935157383041E-04  1.48160757609048E-01
 cg2d: Sum(rhs),rhsMax =   1.41463660338661E-04  1.48165591231908E-01
 cg2d: Sum(rhs),rhsMax =   1.40983226045348E-04  1.48170419474221E-01
 cg2d: Sum(rhs),rhsMax =   1.40493877230531E-04  1.48175242320424E-01
 cg2d: Sum(rhs),rhsMax =   1.40020489898317E-04  1.48180059426606E-01
 cg2d: Sum(rhs),rhsMax =   1.39538840122471E-04  1.48184871441505E-01
 cg2d: Sum(rhs),rhsMax =   1.39048914433120E-04  1.48189678003413E-01
 cg2d: Sum(rhs),rhsMax =   1.38550745884136E-04  1.48194479109748E-01
 cg2d: Sum(rhs),rhsMax =   1.38044376938859E-04  1.48199274743774E-01
 cg2d: Sum(rhs),rhsMax =   1.37529853752823E-04  1.48204064886755E-01
 cg2d: Sum(rhs),rhsMax =   1.37007220756704E-04  1.48208849522283E-01
 cg2d: Sum(rhs),rhsMax =   1.36476519775527E-04  1.48213628635357E-01
 cg2d: Sum(rhs),rhsMax =   1.35937791366881E-04  1.48218402211049E-01
 cg2d: Sum(rhs),rhsMax =   1.35391075846591E-04  1.48223170234011E-01
 cg2d: Sum(rhs),rhsMax =   1.34836413605201E-04  1.48227932688562E-01
 cg2d: Sum(rhs),rhsMax =   1.34273844412955E-04  1.48232689558899E-01
 cg2d: Sum(rhs),rhsMax =   1.33703407582011E-04  1.48237440829225E-01
 cg2d: Sum(rhs),rhsMax =   1.33125141647069E-04  1.48242186483779E-01
 cg2d: Sum(rhs),rhsMax =   1.32539083988640E-04  1.48246926506843E-01
 cg2d: Sum(rhs),rhsMax =   1.31945271188380E-04  1.48251660882723E-01
 cg2d: Sum(rhs),rhsMax =   1.31343738811190E-04  1.48256389595734E-01
 cg2d: Sum(rhs),rhsMax =   1.30734521217190E-04  1.48261112630187E-01
 cg2d: Sum(rhs),rhsMax =   1.30117651710462E-04  1.48265829970379E-01
 cg2d: Sum(rhs),rhsMax =   1.29493162606767E-04  1.48270541600601E-01
 cg2d: Sum(rhs),rhsMax =   1.28861084710251E-04  1.48275247505140E-01
 cg2d: Sum(rhs),rhsMax =   1.28221447802973E-04  1.48279947668277E-01
 cg2d: Sum(rhs),rhsMax =   1.27574280285566E-04  1.48284642074297E-01
 cg2d: Sum(rhs),rhsMax =   1.26919609503327E-04  1.48289330707485E-01
 cg2d: Sum(rhs),rhsMax =   1.26296320640034E-04  1.48294013890048E-01
 cg2d: Sum(rhs),rhsMax =   1.25666341033442E-04  1.48298690941319E-01
 cg2d: Sum(rhs),rhsMax =   1.25029665341807E-04  1.48303362163060E-01
 cg2d: Sum(rhs),rhsMax =   1.24386282994863E-04  1.48308027552882E-01
 cg2d: Sum(rhs),rhsMax =   1.23736215802532E-04  1.48312687092286E-01
 cg2d: Sum(rhs),rhsMax =   1.23122011676025E-04  1.48317340651604E-01
 cg2d: Sum(rhs),rhsMax =   1.22501863257596E-04  1.48321988425477E-01
 cg2d: Sum(rhs),rhsMax =   1.21875716202441E-04  1.48326630309424E-01
 cg2d: Sum(rhs),rhsMax =   1.21243567015758E-04  1.48331266283187E-01
 cg2d: Sum(rhs),rhsMax =   1.20605426550815E-04  1.48335896327703E-01
 cg2d: Sum(rhs),rhsMax =   1.19961313749144E-04  1.48340520424964E-01
 cg2d: Sum(rhs),rhsMax =   1.19311244151101E-04  1.48345138559112E-01
 cg2d: Sum(rhs),rhsMax =   1.18655227999508E-04  1.48349750715281E-01
 cg2d: Sum(rhs),rhsMax =   1.17993272862575E-04  1.48354356878469E-01
 cg2d: Sum(rhs),rhsMax =   1.17325385440445E-04  1.48358957033228E-01
 cg2d: Sum(rhs),rhsMax =   1.16651572975197E-04  1.48363551163800E-01
 cg2d: Sum(rhs),rhsMax =   1.15971842341717E-04  1.48368139254316E-01
(PID.TID 0000.0001)      cg2d_init_res =   1.32255192847166E-03
(PID.TID 0000.0001)      cg2d_iters(min,last) =      -1      69
(PID.TID 0000.0001)      cg2d_last_res =   9.22374055444770E-08
(PID.TID 0000.0001) // =======================================================
(PID.TID 0000.0001) // Begin MONITOR dynamic field statistics
(PID.TID 0000.0001) // =======================================================
(PID.TID 0000.0001) %MON time_tsnumber                =                  4968
(PID.TID 0000.0001) %MON time_secondsf                =   5.9616000000000E+06
(PID.TID 0000.0001) %MON dynstat_eta_max              =   5.1339923457034E-02
(PID.TID 0000.0001) %MON dynstat_eta_min              =  -2.3559386014120E-02
(PID.TID 0000.0001) %MON dynstat_eta_mean             =  -8.5526636209711E-08
(PID.TID 0000.0001) %MON dynstat_eta_sd               =   1.8944577458238E-02
(PID.TID 0000.0001) %MON dynstat_eta_del2             =   1.8425243226924E-05
(PID.TID 0000.0001) %MON dynstat_uvel_max             =   2.8326885869568E-02
(PID.TID 0000.0001) %MON dynstat_uvel_min             =  -1.5436331000022E-02
(PID.TID 0000.0001) %MON dynstat_uvel_mean            =  -2.5097021251089E-07
(PID.TID 0000.0001) %MON dynstat_uvel_sd              =   7.3282586408408E-03
(PID.TID 0000.0001) %MON dynstat_uvel_del2            =   8.1677869210051E-06
(PID.TID 0000.0001) %MON dynstat_vvel_max             =   8.8998599587256E-02
(PID.TID 0000.0001) %MON dynstat_vvel_min             =  -3.3297780480026E-02
(PID.TID 0000.0001) %MON dynstat_vvel_mean            =  -8.6990283884779E-09
(PID.TID 0000.0001) %MON dynstat_vvel_sd              =   1.5839382593427E-02
(PID.TID 0000.0001) %MON dynstat_vvel_del2            =   7.3365842924004E-05
(PID.TID 0000.0001) %MON dynstat_wvel_max             =   1.9156043266412E-08
(PID.TID 0000.0001) %MON dynstat_wvel_min             =  -1.5807212433429E-08
(PID.TID 0000.0001) %MON dynstat_wvel_mean            =   2.6701251145924E-21
(PID.TID 0000.0001) %MON dynstat_wvel_sd              =   7.3718696013486E-09
(PID.TID 0000.0001) %MON dynstat_wvel_del2            =   3.5246419335871E-12
(PID.TID 0000.0001) %MON dynstat_theta_max            =   2.0000000000000E+01
(PID.TID 0000.0001) %MON dynstat_theta_min            =   2.0000000000000E+01
(PID.TID 0000.0001) %MON dynstat_theta_mean           =   2.0000000000000E+01
(PID.TID 0000.0001) %MON dynstat_theta_sd             =   0.0000000000000E+00
(PID.TID 0000.0001) %MON dynstat_theta_del2           =   0.0000000000000E+00
(PID.TID 0000.0001) %MON dynstat_salt_max             =   3.0000000000000E+01
(PID.TID 0000.0001) %MON dynstat_salt_min             =   3.0000000000000E+01
(PID.TID 0000.0001) %MON dynstat_salt_mean            =   3.0000000000000E+01
(PID.TID 0000.0001) %MON dynstat_salt_sd              =   0.0000000000000E+00
(PID.TID 0000.0001) %MON dynstat_salt_del2            =   0.0000000000000E+00
(PID.TID 0000.0001) %MON trAdv_CFL_u_max              =   1.6994566910182E-03
(PID.TID 0000.0001) %MON trAdv_CFL_v_max              =   5.3398210059221E-03
(PID.TID 0000.0001) %MON trAdv_CFL_w_max              =   4.5993097656872E-09
(PID.TID 0000.0001) %MON advcfl_uvel_max              =   1.6996131521741E-03
(PID.TID 0000.0001) %MON advcfl_vvel_max              =   5.3399159752353E-03
(PID.TID 0000.0001) %MON advcfl_wvel_max              =   9.1949007678777E-09
(PID.TID 0000.0001) %MON advcfl_W_hf_max              =   0.0000000000000E+00
(PID.TID 0000.0001) %MON pe_b_mean                    =   3.5207797179199E-07
(PID.TID 0000.0001) %MON ke_max                       =   3.9605683594314E-03
(PID.TID 0000.0001) %MON ke_mean                      =   1.4975646272462E-04
(PID.TID 0000.0001) %MON ke_vol                       =   7.2000000000000E+15
(PID.TID 0000.0001) %MON vort_r_min                   =  -1.5252413123455E-06
(PID.TID 0000.0001) %MON vort_r_max                   =   2.4387419709476E-06
(PID.TID 0000.0001) %MON vort_a_mean                  =   1.0600000000000E-04
(PID.TID 0000.0001) %MON vort_a_sd                    =   3.5375258615716E-06
(PID.TID 0000.0001) %MON vort_p_mean                  =   1.1130000000000E-04
(PID.TID 0000.0001) %MON vort_p_sd                    =   4.1152501118200E-05
(PID.TID 0000.0001) %MON surfExpan_theta_mean         =   5.3399655068157E-20
(PID.TID 0000.0001) %MON surfExpan_salt_mean          =   8.0100745789322E-20
(PID.TID 0000.0001) // =======================================================
(PID.TID 0000.0001) // End MONITOR dynamic field statistics
(PID.TID 0000.0001) // =======================================================
 cg2d: Sum(rhs),rhsMax =   1.15286200145040E-04  1.48372721288920E-01
 cg2d: Sum(rhs),rhsMax =   1.14594652639484E-04  1.48377297251814E-01
 cg2d: Sum(rhs),rhsMax =   1.13897205593022E-04  1.48381867127248E-01
 cg2d: Sum(rhs),rhsMax =   1.13193864364008E-04  1.48386430899506E-01
 cg2d: Sum(rhs),rhsMax =   1.12484634136576E-04  1.48390988552879E-01
 cg2d: Sum(rhs),rhsMax =   1.11769520094402E-04  1.48395540071649E-01
 cg2d: Sum(rhs),rhsMax =   1.11048527060676E-04  1.48400085440086E-01
 cg2d: Sum(rhs),rhsMax =   1.10321659682704E-04  1.48404624642448E-01
 cg2d: Sum(rhs),rhsMax =   1.09588922894298E-04  1.48409157662988E-01
 cg2d: Sum(rhs),rhsMax =   1.08850321126955E-04  1.48413684485963E-01
 cg2d: Sum(rhs),rhsMax =   1.08105858982175E-04  1.48418205095633E-01
 cg2d: Sum(rhs),rhsMax =   1.07355541222668E-04  1.48422719476260E-01
 cg2d: Sum(rhs),rhsMax =   1.06599372207813E-04  1.48427227612108E-01
 cg2d: Sum(rhs),rhsMax =   1.05876576644587E-04  1.48431729268363E-01
 cg2d: Sum(rhs),rhsMax =   1.05148308296002E-04  1.48436224846726E-01
 cg2d: Sum(rhs),rhsMax =   1.04414587128661E-04  1.48440714152528E-01
 cg2d: Sum(rhs),rhsMax =   1.03675393955097E-04  1.48445197153967E-01
 cg2d: Sum(rhs),rhsMax =   1.02930734526331E-04  1.48449673831685E-01
 cg2d: Sum(rhs),rhsMax =   1.02180620729821E-04  1.48454144168571E-01
 cg2d: Sum(rhs),rhsMax =   1.01425062967534E-04  1.48458608149212E-01
 cg2d: Sum(rhs),rhsMax =   1.00664068822103E-04  1.48463065758699E-01
 cg2d: Sum(rhs),rhsMax =   9.98976449149373E-05  1.48467516981904E-01
 cg2d: Sum(rhs),rhsMax =   9.91257981060338E-05  1.48471961803310E-01
 cg2d: Sum(rhs),rhsMax =   9.83485361647279E-05  1.48476400207135E-01
 cg2d: Sum(rhs),rhsMax =   9.75658670994304E-05  1.48480832177503E-01
 cg2d: Sum(rhs),rhsMax =   9.67777992846013E-05  1.48485257698555E-01
 cg2d: Sum(rhs),rhsMax =   9.59843413306551E-05  1.48489676754504E-01
 cg2d: Sum(rhs),rhsMax =   9.51855018431766E-05  1.48494089329618E-01
 cg2d: Sum(rhs),rhsMax =   9.43812895995034E-05  1.48498495408199E-01
 cg2d: Sum(rhs),rhsMax =   9.35717135962201E-05  1.48502894974553E-01
 cg2d: Sum(rhs),rhsMax =   9.27567832089754E-05  1.48507288012971E-01
 cg2d: Sum(rhs),rhsMax =   9.19365077902265E-05  1.48511674507732E-01
 cg2d: Sum(rhs),rhsMax =   9.11108970424908E-05  1.48516054443101E-01
 cg2d: Sum(rhs),rhsMax =   9.02799608765723E-05  1.48520427803349E-01
 cg2d: Sum(rhs),rhsMax =   8.94437090804010E-05  1.48524794572748E-01
 cg2d: Sum(rhs),rhsMax =   8.86021521979627E-05  1.48529154735579E-01
 cg2d: Sum(rhs),rhsMax =   8.77553003500982E-05  1.48533508276123E-01
 cg2d: Sum(rhs),rhsMax =   8.69031642261138E-05  1.48537855178667E-01
 cg2d: Sum(rhs),rhsMax =   8.60457545053313E-05  1.48542195427497E-01
 cg2d: Sum(rhs),rhsMax =   8.51830821638087E-05  1.48546529006900E-01
 cg2d: Sum(rhs),rhsMax =   8.43151583374393E-05  1.48550855901166E-01
 cg2d: Sum(rhs),rhsMax =   8.34419941394045E-05  1.48555176094584E-01
 cg2d: Sum(rhs),rhsMax =   8.25636012518911E-05  1.48559489571444E-01
 cg2d: Sum(rhs),rhsMax =   8.16799910983677E-05  1.48563796316042E-01
 cg2d: Sum(rhs),rhsMax =   8.07911752905045E-05  1.48568096312673E-01
 cg2d: Sum(rhs),rhsMax =   7.98971658852142E-05  1.48572389545636E-01
 cg2d: Sum(rhs),rhsMax =   7.89979747934629E-05  1.48576675999230E-01
 cg2d: Sum(rhs),rhsMax =   7.80936143209079E-05  1.48580955657760E-01
 cg2d: Sum(rhs),rhsMax =   7.71840968073825E-05  1.48585228505529E-01
 cg2d: Sum(rhs),rhsMax =   7.62694345902374E-05  1.48589494526843E-01
 cg2d: Sum(rhs),rhsMax =   7.53496404084187E-05  1.48593753706012E-01
 cg2d: Sum(rhs),rhsMax =   7.44247268520317E-05  1.48598006027349E-01
 cg2d: Sum(rhs),rhsMax =   7.34947069574131E-05  1.48602251475168E-01
 cg2d: Sum(rhs),rhsMax =   7.25595935871029E-05  1.48606490033784E-01
 cg2d: Sum(rhs),rhsMax =   7.16193999492857E-05  1.48610721687518E-01
 cg2d: Sum(rhs),rhsMax =   7.06741391425141E-05  1.48614946420690E-01
 cg2d: Sum(rhs),rhsMax =   6.97238246727587E-05  1.48619164217628E-01
 cg2d: Sum(rhs),rhsMax =   6.87684698759345E-05  1.48623375062656E-01
 cg2d: Sum(rhs),rhsMax =   6.78080884472321E-05  1.48627578940105E-01
 cg2d: Sum(rhs),rhsMax =   6.68426940136860E-05  1.48631775834310E-01
 cg2d: Sum(rhs),rhsMax =   6.59225501481245E-05  1.48635965824639E-01
 cg2d: Sum(rhs),rhsMax =   6.49978483587199E-05  1.48640148686109E-01
 cg2d: Sum(rhs),rhsMax =   6.40685707025707E-05  1.48644324534673E-01
 cg2d: Sum(rhs),rhsMax =   6.31347394363406E-05  1.48648493343018E-01
 cg2d: Sum(rhs),rhsMax =   6.21963702272608E-05  1.48652655089683E-01
 cg2d: Sum(rhs),rhsMax =   6.12534823473225E-05  1.48656809757637E-01
 cg2d: Sum(rhs),rhsMax =   6.03060931958907E-05  1.48660957331562E-01
 cg2d: Sum(rhs),rhsMax =   5.93542189188832E-05  1.48665097796551E-01
 cg2d: Sum(rhs),rhsMax =   5.83978747977316E-05  1.48669231137516E-01
 cg2d: Sum(rhs),rhsMax =   5.74370770278958E-05  1.48673357339035E-01
 cg2d: Sum(rhs),rhsMax =   5.64718423591900E-05  1.48677476385449E-01
 cg2d: Sum(rhs),rhsMax =   5.55021877278027E-05  1.48681588261004E-01
(PID.TID 0000.0001)      cg2d_init_res =   1.30926487951560E-03
(PID.TID 0000.0001)      cg2d_iters(min,last) =      -1      71
(PID.TID 0000.0001)      cg2d_last_res =   8.53161189066602E-08
(PID.TID 0000.0001) // =======================================================
(PID.TID 0000.0001) // Begin MONITOR dynamic field statistics
(PID.TID 0000.0001) // =======================================================
(PID.TID 0000.0001) %MON time_tsnumber                =                  5040
(PID.TID 0000.0001) %MON time_secondsf                =   6.0480000000000E+06
(PID.TID 0000.0001) %MON dynstat_eta_max              =   5.1407039249635E-02
(PID.TID 0000.0001) %MON dynstat_eta_min              =  -2.3482566664415E-02
(PID.TID 0000.0001) %MON dynstat_eta_mean             =  -4.0537763865949E-08
(PID.TID 0000.0001) %MON dynstat_eta_sd               =   1.9150539451831E-02
(PID.TID 0000.0001) %MON dynstat_eta_del2             =   1.8465403074157E-05
(PID.TID 0000.0001) %MON dynstat_uvel_max             =   2.8513649610611E-02
(PID.TID 0000.0001) %MON dynstat_uvel_min             =  -1.5679331124342E-02
(PID.TID 0000.0001) %MON dynstat_uvel_mean            =  -2.4560630987539E-07
(PID.TID 0000.0001) %MON dynstat_uvel_sd              =   7.3528523649814E-03
(PID.TID 0000.0001) %MON dynstat_uvel_del2            =   8.2102082752201E-06
(PID.TID 0000.0001) %MON dynstat_vvel_max             =   8.9114165649688E-02
(PID.TID 0000.0001) %MON dynstat_vvel_min             =  -3.3285695532810E-02
(PID.TID 0000.0001) %MON dynstat_vvel_mean            =  -7.4244889479193E-09
(PID.TID 0000.0001) %MON dynstat_vvel_sd              =   1.5855505469409E-02
(PID.TID 0000.0001) %MON dynstat_vvel_del2            =   7.3639937205147E-05
(PID.TID 0000.0001) %MON dynstat_wvel_max             =   1.8497925367847E-08
(PID.TID 0000.0001) %MON dynstat_wvel_min             =  -1.6441918724449E-08
(PID.TID 0000.0001) %MON dynstat_wvel_mean            =  -2.7810276353395E-22
(PID.TID 0000.0001) %MON dynstat_wvel_sd              =   7.3460517718234E-09
(PID.TID 0000.0001) %MON dynstat_wvel_del2            =   3.4888961105386E-12
(PID.TID 0000.0001) %MON dynstat_theta_max            =   2.0000000000000E+01
(PID.TID 0000.0001) %MON dynstat_theta_min            =   2.0000000000000E+01
(PID.TID 0000.0001) %MON dynstat_theta_mean           =   2.0000000000000E+01
(PID.TID 0000.0001) %MON dynstat_theta_sd             =   0.0000000000000E+00
(PID.TID 0000.0001) %MON dynstat_theta_del2           =   0.0000000000000E+00
(PID.TID 0000.0001) %MON dynstat_salt_max             =   3.0000000000000E+01
(PID.TID 0000.0001) %MON dynstat_salt_min             =   3.0000000000000E+01
(PID.TID 0000.0001) %MON dynstat_salt_mean            =   3.0000000000000E+01
(PID.TID 0000.0001) %MON dynstat_salt_sd              =   0.0000000000000E+00
(PID.TID 0000.0001) %MON dynstat_salt_del2            =   0.0000000000000E+00
(PID.TID 0000.0001) %MON trAdv_CFL_u_max              =   1.7106643345961E-03
(PID.TID 0000.0001) %MON trAdv_CFL_v_max              =   5.3467135232490E-03
(PID.TID 0000.0001) %MON trAdv_CFL_w_max              =   4.4420238082996E-09
(PID.TID 0000.0001) %MON advcfl_uvel_max              =   1.7108189766367E-03
(PID.TID 0000.0001) %MON advcfl_vvel_max              =   5.3468499389813E-03
(PID.TID 0000.0001) %MON advcfl_wvel_max              =   8.8790041765664E-09
(PID.TID 0000.0001) %MON advcfl_W_hf_max              =   0.0000000000000E+00
(PID.TID 0000.0001) %MON pe_b_mean                    =   3.5977504123312E-07
(PID.TID 0000.0001) %MON ke_max                       =   3.9679189528496E-03
(PID.TID 0000.0001) %MON ke_mean                      =   1.5018523339559E-04
(PID.TID 0000.0001) %MON ke_vol                       =   7.2000000000000E+15
(PID.TID 0000.0001) %MON vort_r_min                   =  -1.5319844788408E-06
(PID.TID 0000.0001) %MON vort_r_max                   =   2.4443215261330E-06
(PID.TID 0000.0001) %MON vort_a_mean                  =   1.0600000000000E-04
(PID.TID 0000.0001) %MON vort_a_sd                    =   3.5376267831124E-06
(PID.TID 0000.0001) %MON vort_p_mean                  =   1.1130000000000E-04
(PID.TID 0000.0001) %MON vort_p_sd                    =   4.1152501389356E-05
(PID.TID 0000.0001) %MON surfExpan_theta_mean         =  -5.5612600944086E-21
(PID.TID 0000.0001) %MON surfExpan_salt_mean          =  -8.3396795642127E-21
(PID.TID 0000.0001) // =======================================================
(PID.TID 0000.0001) // End MONITOR dynamic field statistics
(PID.TID 0000.0001) // =======================================================
 cg2d: Sum(rhs),rhsMax =   5.45281298595674E-05  1.48685692949954E-01
 cg2d: Sum(rhs),rhsMax =   5.35496856915053E-05  1.48689790436621E-01
 cg2d: Sum(rhs),rhsMax =   5.25668720021757E-05  1.48693880705382E-01
 cg2d: Sum(rhs),rhsMax =   5.15797054939813E-05  1.48697963740654E-01
 cg2d: Sum(rhs),rhsMax =   5.05882030982386E-05  1.48702039526856E-01
 cg2d: Sum(rhs),rhsMax =   4.95923817299482E-05  1.48706108048401E-01
 cg2d: Sum(rhs),rhsMax =   4.85922584431350E-05  1.48710169289691E-01
 cg2d: Sum(rhs),rhsMax =   4.75878501625376E-05  1.48714223235121E-01
 cg2d: Sum(rhs),rhsMax =   4.65791740424625E-05  1.48718269869092E-01
 cg2d: Sum(rhs),rhsMax =   4.55662472051491E-05  1.48722309176007E-01
 cg2d: Sum(rhs),rhsMax =   4.45490867508709E-05  1.48726341140285E-01
 cg2d: Sum(rhs),rhsMax =   4.35277098393199E-05  1.48730365746343E-01
 cg2d: Sum(rhs),rhsMax =   4.25021337018723E-05  1.48734382978610E-01
 cg2d: Sum(rhs),rhsMax =   4.14723755092954E-05  1.48738392821514E-01
 cg2d: Sum(rhs),rhsMax =   4.04384525864382E-05  1.48742395259490E-01
 cg2d: Sum(rhs),rhsMax =   3.94003821802807E-05  1.48746390276972E-01
 cg2d: Sum(rhs),rhsMax =   3.83581816631468E-05  1.48750377858404E-01
 cg2d: Sum(rhs),rhsMax =   3.73118681313185E-05  1.48754357988230E-01
 cg2d: Sum(rhs),rhsMax =   3.62614592211499E-05  1.48758330650903E-01
 cg2d: Sum(rhs),rhsMax =   3.52069721394239E-05  1.48762295830878E-01
 cg2d: Sum(rhs),rhsMax =   3.41484243247068E-05  1.48766253512617E-01
 cg2d: Sum(rhs),rhsMax =   3.30858331030106E-05  1.48770203680583E-01
 cg2d: Sum(rhs),rhsMax =   3.20192159372771E-05  1.48774146319249E-01
 cg2d: Sum(rhs),rhsMax =   3.09485901986159E-05  1.48778081413090E-01
 cg2d: Sum(rhs),rhsMax =   2.98739733263741E-05  1.48782008946587E-01
 cg2d: Sum(rhs),rhsMax =   2.87953828419403E-05  1.48785928904223E-01
 cg2d: Sum(rhs),rhsMax =   2.77128361143211E-05  1.48789841270492E-01
 cg2d: Sum(rhs),rhsMax =   2.66263506504003E-05  1.48793746029887E-01
 cg2d: Sum(rhs),rhsMax =   2.55359439082963E-05  1.48797643166912E-01
 cg2d: Sum(rhs),rhsMax =   2.44416333950561E-05  1.48801532666070E-01
 cg2d: Sum(rhs),rhsMax =   2.33434365105685E-05  1.48805414511877E-01
 cg2d: Sum(rhs),rhsMax =   2.22413708002986E-05  1.48809288688847E-01
 cg2d: Sum(rhs),rhsMax =   2.11354536498887E-05  1.48813155181505E-01
 cg2d: Sum(rhs),rhsMax =   2.00257026330480E-05  1.48817013974377E-01
 cg2d: Sum(rhs),rhsMax =   1.89121351558677E-05  1.48820865051999E-01
 cg2d: Sum(rhs),rhsMax =   1.77947687277609E-05  1.48824708398911E-01
 cg2d: Sum(rhs),rhsMax =   1.66736207979556E-05  1.48828543999656E-01
 cg2d: Sum(rhs),rhsMax =   1.55487087918713E-05  1.48832371838788E-01
 cg2d: Sum(rhs),rhsMax =   1.44200502480481E-05  1.48836191900861E-01
 cg2d: Sum(rhs),rhsMax =   1.32876625650183E-05  1.48840004170440E-01
 cg2d: Sum(rhs),rhsMax =   1.21515631797469E-05  1.48843808632092E-01
 cg2d: Sum(rhs),rhsMax =   1.10117695514217E-05  1.48847605270395E-01
 cg2d: Sum(rhs),rhsMax =   9.86829895279710E-06  1.48851394069927E-01
 cg2d: Sum(rhs),rhsMax =   8.72116900030133E-06  1.48855175015275E-01
 cg2d: Sum(rhs),rhsMax =   7.57039694245561E-06  1.48858948091033E-01
 cg2d: Sum(rhs),rhsMax =   6.47563259002348E-06  1.48862713252614E-01
 cg2d: Sum(rhs),rhsMax =   5.37757856062648E-06  1.48866470527229E-01
 cg2d: Sum(rhs),rhsMax =   4.27630756391802E-06  1.48870219901356E-01
 cg2d: Sum(rhs),rhsMax =   3.17182501649409E-06  1.48873961351408E-01
 cg2d: Sum(rhs),rhsMax =   2.06414997553587E-06  1.48877694855386E-01
 cg2d: Sum(rhs),rhsMax =   9.53301317661512E-07  1.48881420396416E-01
 cg2d: Sum(rhs),rhsMax =  -1.60703942673167E-07  1.48885137959324E-01
 cg2d: Sum(rhs),rhsMax =  -1.27784945119693E-06  1.48888847529302E-01
 cg2d: Sum(rhs),rhsMax =  -2.39811885876899E-06  1.48892549091406E-01
 cg2d: Sum(rhs),rhsMax =  -3.52149465935887E-06  1.48896242630447E-01
 cg2d: Sum(rhs),rhsMax =  -4.64795922580988E-06  1.48899928131062E-01
 cg2d: Sum(rhs),rhsMax =  -5.77749440375686E-06  1.48903605577826E-01
 cg2d: Sum(rhs),rhsMax =  -6.91008253113010E-06  1.48907274955332E-01
 cg2d: Sum(rhs),rhsMax =  -8.04570615210980E-06  1.48910936248225E-01
 cg2d: Sum(rhs),rhsMax =  -9.18434789158075E-06  1.48914589441199E-01
 cg2d: Sum(rhs),rhsMax =  -1.03259907245348E-05  1.48918234518976E-01
 cg2d: Sum(rhs),rhsMax =  -1.14706172664701E-05  1.48921871466286E-01
 cg2d: Sum(rhs),rhsMax =  -1.26182102931187E-05  1.48925500267855E-01
 cg2d: Sum(rhs),rhsMax =  -1.37687525956472E-05  1.48929120908406E-01
 cg2d: Sum(rhs),rhsMax =  -1.49222269385744E-05  1.48932733372664E-01
 cg2d: Sum(rhs),rhsMax =  -1.60786160603799E-05  1.48936337645357E-01
 cg2d: Sum(rhs),rhsMax =  -1.72379030053838E-05  1.48939933711226E-01
 cg2d: Sum(rhs),rhsMax =  -1.84000705922291E-05  1.48943521555021E-01
 cg2d: Sum(rhs),rhsMax =  -1.95651018361793E-05  1.48947101161502E-01
 cg2d: Sum(rhs),rhsMax =  -2.07329797836560E-05  1.48950672515437E-01
 cg2d: Sum(rhs),rhsMax =  -2.19036874520477E-05  1.48954235601601E-01
 cg2d: Sum(rhs),rhsMax =  -2.30772080230326E-05  1.48957790404777E-01
(PID.TID 0000.0001)      cg2d_init_res =   1.29685799340498E-03
(PID.TID 0000.0001)      cg2d_iters(min,last) =      -1      72
(PID.TID 0000.0001)      cg2d_last_res =   9.41622970849164E-08
(PID.TID 0000.0001) // =======================================================
(PID.TID 0000.0001) // Begin MONITOR dynamic field statistics
(PID.TID 0000.0001) // =======================================================
(PID.TID 0000.0001) %MON time_tsnumber                =                  5112
(PID.TID 0000.0001) %MON time_secondsf                =   6.1344000000000E+06
(PID.TID 0000.0001) %MON dynstat_eta_max              =   5.1534997711911E-02
(PID.TID 0000.0001) %MON dynstat_eta_min              =  -2.3364541888618E-02
(PID.TID 0000.0001) %MON dynstat_eta_mean             =   1.8064187310701E-08
(PID.TID 0000.0001) %MON dynstat_eta_sd               =   1.9335597761768E-02
(PID.TID 0000.0001) %MON dynstat_eta_del2             =   1.8502980282092E-05
(PID.TID 0000.0001) %MON dynstat_uvel_max             =   2.8697513755576E-02
(PID.TID 0000.0001) %MON dynstat_uvel_min             =  -1.5899188235803E-02
(PID.TID 0000.0001) %MON dynstat_uvel_mean            =  -2.3657626229306E-07
(PID.TID 0000.0001) %MON dynstat_uvel_sd              =   7.3675813719286E-03
(PID.TID 0000.0001) %MON dynstat_uvel_del2            =   8.2445432930420E-06
(PID.TID 0000.0001) %MON dynstat_vvel_max             =   8.9267940505556E-02
(PID.TID 0000.0001) %MON dynstat_vvel_min             =  -3.3299763328160E-02
(PID.TID 0000.0001) %MON dynstat_vvel_mean            =  -6.1110535365004E-09
(PID.TID 0000.0001) %MON dynstat_vvel_sd              =   1.5871798717179E-02
(PID.TID 0000.0001) %MON dynstat_vvel_del2            =   7.3908571611565E-05
(PID.TID 0000.0001) %MON dynstat_wvel_max             =   1.7758519786294E-08
(PID.TID 0000.0001) %MON dynstat_wvel_min             =  -1.7038656051154E-08
(PID.TID 0000.0001) %MON dynstat_wvel_mean            =  -2.9708404427866E-22
(PID.TID 0000.0001) %MON dynstat_wvel_sd              =   7.3166425115355E-09
(PID.TID 0000.0001) %MON dynstat_wvel_del2            =   3.4581033909026E-12
(PID.TID 0000.0001) %MON dynstat_theta_max            =   2.0000000000000E+01
(PID.TID 0000.0001) %MON dynstat_theta_min            =   2.0000000000000E+01
(PID.TID 0000.0001) %MON dynstat_theta_mean           =   2.0000000000000E+01
(PID.TID 0000.0001) %MON dynstat_theta_sd             =   0.0000000000000E+00
(PID.TID 0000.0001) %MON dynstat_theta_del2           =   0.0000000000000E+00
(PID.TID 0000.0001) %MON dynstat_salt_max             =   3.0000000000000E+01
(PID.TID 0000.0001) %MON dynstat_salt_min             =   3.0000000000000E+01
(PID.TID 0000.0001) %MON dynstat_salt_mean            =   3.0000000000000E+01
(PID.TID 0000.0001) %MON dynstat_salt_sd              =   0.0000000000000E+00
(PID.TID 0000.0001) %MON dynstat_salt_del2            =   0.0000000000000E+00
(PID.TID 0000.0001) %MON trAdv_CFL_u_max              =   1.7216991837206E-03
(PID.TID 0000.0001) %MON trAdv_CFL_v_max              =   5.3559567792542E-03
(PID.TID 0000.0001) %MON trAdv_CFL_w_max              =   4.2643725265749E-09
(PID.TID 0000.0001) %MON advcfl_uvel_max              =   1.7218508253346E-03
(PID.TID 0000.0001) %MON advcfl_vvel_max              =   5.3560764303334E-03
(PID.TID 0000.0001) %MON advcfl_wvel_max              =   8.5240894974209E-09
(PID.TID 0000.0001) %MON advcfl_W_hf_max              =   0.0000000000000E+00
(PID.TID 0000.0001) %MON pe_b_mean                    =   3.6676189932990E-07
(PID.TID 0000.0001) %MON ke_max                       =   3.9782009055091E-03
(PID.TID 0000.0001) %MON ke_mean                      =   1.5054599784126E-04
(PID.TID 0000.0001) %MON ke_vol                       =   7.2000000000000E+15
(PID.TID 0000.0001) %MON vort_r_min                   =  -1.5381644511269E-06
(PID.TID 0000.0001) %MON vort_r_max                   =   2.4491678749916E-06
(PID.TID 0000.0001) %MON vort_a_mean                  =   1.0600000000000E-04
(PID.TID 0000.0001) %MON vort_a_sd                    =   3.5377231245760E-06
(PID.TID 0000.0001) %MON vort_p_mean                  =   1.1130000000000E-04
(PID.TID 0000.0001) %MON vort_p_sd                    =   4.1152483704805E-05
(PID.TID 0000.0001) %MON surfExpan_theta_mean         =  -5.9394859401133E-21
(PID.TID 0000.0001) %MON surfExpan_salt_mean          =  -8.9119822632711E-21
(PID.TID 0000.0001) // =======================================================
(PID.TID 0000.0001) // End MONITOR dynamic field statistics
(PID.TID 0000.0001) // =======================================================
 cg2d: Sum(rhs),rhsMax =  -2.42535247104029E-05  1.48961336909753E-01
 cg2d: Sum(rhs),rhsMax =  -2.54326204719912E-05  1.48964875101327E-01
 cg2d: Sum(rhs),rhsMax =  -2.66144787555997E-05  1.48968404964303E-01
 cg2d: Sum(rhs),rhsMax =  -2.77990827576326E-05  1.48971926483496E-01
 cg2d: Sum(rhs),rhsMax =  -2.89864157955993E-05  1.48975439643727E-01
 cg2d: Sum(rhs),rhsMax =  -3.01764613457236E-05  1.48978944429823E-01
 cg2d: Sum(rhs),rhsMax =  -3.13692026880216E-05  1.48982440826624E-01
 cg2d: Sum(rhs),rhsMax =  -3.25646233321165E-05  1.48985928818974E-01
 cg2d: Sum(rhs),rhsMax =  -3.37627068580596E-05  1.48989408391728E-01
 cg2d: Sum(rhs),rhsMax =  -3.49634367911023E-05  1.48992879529747E-01
 cg2d: Sum(rhs),rhsMax =  -3.61667967213744E-05  1.48996342217902E-01
 cg2d: Sum(rhs),rhsMax =  -3.73727703461930E-05  1.48999796441072E-01
 cg2d: Sum(rhs),rhsMax =  -3.85813413929098E-05  1.49003242184143E-01
 cg2d: Sum(rhs),rhsMax =  -3.97924934412179E-05  1.49006679432013E-01
 cg2d: Sum(rhs),rhsMax =  -4.10062105936299E-05  1.49010108169585E-01
 cg2d: Sum(rhs),rhsMax =  -4.22224764975547E-05  1.49013528381772E-01
 cg2d: Sum(rhs),rhsMax =  -4.34412751490389E-05  1.49016940053496E-01
 cg2d: Sum(rhs),rhsMax =  -4.46625903689274E-05  1.49020343169687E-01
 cg2d: Sum(rhs),rhsMax =  -4.58864062475618E-05  1.49023737715284E-01
 cg2d: Sum(rhs),rhsMax =  -4.71127068059577E-05  1.49027123675236E-01
 cg2d: Sum(rhs),rhsMax =  -4.82658186856857E-05  1.49030501280756E-01
 cg2d: Sum(rhs),rhsMax =  -4.94210418043092E-05  1.49033870037980E-01
 cg2d: Sum(rhs),rhsMax =  -5.05783913959286E-05  1.49037230149481E-01
 cg2d: Sum(rhs),rhsMax =  -5.17378334791777E-05  1.49040581620919E-01
 cg2d: Sum(rhs),rhsMax =  -5.28993507063185E-05  1.49043924432483E-01
 cg2d: Sum(rhs),rhsMax =  -5.40629267390402E-05  1.49047258567678E-01
 cg2d: Sum(rhs),rhsMax =  -5.52285474133682E-05  1.49050584011473E-01
 cg2d: Sum(rhs),rhsMax =  -5.63961989587022E-05  1.49053900749265E-01
 cg2d: Sum(rhs),rhsMax =  -5.75658671424784E-05  1.49057208766384E-01
 cg2d: Sum(rhs),rhsMax =  -5.87375369595954E-05  1.49060508047979E-01
 cg2d: Sum(rhs),rhsMax =  -5.99111927769040E-05  1.49063798579081E-01
 cg2d: Sum(rhs),rhsMax =  -6.10868191810582E-05  1.49067080344685E-01
 cg2d: Sum(rhs),rhsMax =  -6.22644009222280E-05  1.49070353329804E-01
 cg2d: Sum(rhs),rhsMax =  -6.34439227933815E-05  1.49073617519490E-01
 cg2d: Sum(rhs),rhsMax =  -6.46253702154768E-05  1.49076872898828E-01
 cg2d: Sum(rhs),rhsMax =  -6.58087283652176E-05  1.49080119452928E-01
 cg2d: Sum(rhs),rhsMax =  -6.69939824768243E-05  1.49083357166909E-01
 cg2d: Sum(rhs),rhsMax =  -6.81811178333868E-05  1.49086586025894E-01
 cg2d: Sum(rhs),rhsMax =  -6.93701197279481E-05  1.49089806015012E-01
 cg2d: Sum(rhs),rhsMax =  -7.05609736059345E-05  1.49093017119397E-01
 cg2d: Sum(rhs),rhsMax =  -7.17536647535742E-05  1.49096219324192E-01
 cg2d: Sum(rhs),rhsMax =  -7.29481786893730E-05  1.49099412614552E-01
 cg2d: Sum(rhs),rhsMax =  -7.41445011937843E-05  1.49102596975643E-01
 cg2d: Sum(rhs),rhsMax =  -7.53426176550148E-05  1.49105772392645E-01
 cg2d: Sum(rhs),rhsMax =  -7.65425138395497E-05  1.49108938850744E-01
 cg2d: Sum(rhs),rhsMax =  -7.77441755476539E-05  1.49112096335140E-01
 cg2d: Sum(rhs),rhsMax =  -7.89475884453994E-05  1.49115244831039E-01
 cg2d: Sum(rhs),rhsMax =  -8.01527384172180E-05  1.49118384323660E-01
 cg2d: Sum(rhs),rhsMax =  -8.13596114544908E-05  1.49121514798232E-01
 cg2d: Sum(rhs),rhsMax =  -8.25681934347429E-05  1.49124636239994E-01
 cg2d: Sum(rhs),rhsMax =  -8.37784703872817E-05  1.49127748634196E-01
 cg2d: Sum(rhs),rhsMax =  -8.49904284551221E-05  1.49130851966097E-01
 cg2d: Sum(rhs),rhsMax =  -8.62040538420318E-05  1.49133946220971E-01
 cg2d: Sum(rhs),rhsMax =  -8.74193325902254E-05  1.49137031384098E-01
 cg2d: Sum(rhs),rhsMax =  -8.86362510361159E-05  1.49140107440771E-01
 cg2d: Sum(rhs),rhsMax =  -8.98547955834770E-05  1.49143174376295E-01
 cg2d: Sum(rhs),rhsMax =  -9.10749525258794E-05  1.49146232175984E-01
 cg2d: Sum(rhs),rhsMax =  -9.22967082357170E-05  1.49149280825162E-01
 cg2d: Sum(rhs),rhsMax =  -9.35200494380402E-05  1.49152320309167E-01
 cg2d: Sum(rhs),rhsMax =  -9.47449624532620E-05  1.49155350613347E-01
 cg2d: Sum(rhs),rhsMax =  -9.59714340337519E-05  1.49158371723058E-01
 cg2d: Sum(rhs),rhsMax =  -9.71994508636208E-05  1.49161383623672E-01
 cg2d: Sum(rhs),rhsMax =  -9.84289995718214E-05  1.49164386300570E-01
 cg2d: Sum(rhs),rhsMax =  -9.96600670156401E-05  1.49167379739144E-01
 cg2d: Sum(rhs),rhsMax =  -1.00892640067449E-04  1.49170363924799E-01
 cg2d: Sum(rhs),rhsMax =  -1.02126705487382E-04  1.49173338842948E-01
 cg2d: Sum(rhs),rhsMax =  -1.03361695447143E-04  1.49177105527040E-01
 cg2d: Sum(rhs),rhsMax =  -1.04598072623851E-04  1.49180956906178E-01
 cg2d: Sum(rhs),rhsMax =  -1.05745449574529E-04  1.49184798734232E-01
 cg2d: Sum(rhs),rhsMax =  -1.06893964340578E-04  1.49188630945441E-01
 cg2d: Sum(rhs),rhsMax =  -1.08043539046743E-04  1.49192453516642E-01
 cg2d: Sum(rhs),rhsMax =  -1.09194178577718E-04  1.49196266458707E-01
(PID.TID 0000.0001)      cg2d_init_res =   1.28540115543833E-03
(PID.TID 0000.0001)      cg2d_iters(min,last) =      -1      74
(PID.TID 0000.0001)      cg2d_last_res =   9.94682634716836E-08
(PID.TID 0000.0001) // =======================================================
(PID.TID 0000.0001) // Begin MONITOR dynamic field statistics
(PID.TID 0000.0001) // =======================================================
(PID.TID 0000.0001) %MON time_tsnumber                =                  5184
(PID.TID 0000.0001) %MON time_secondsf                =   6.2208000000000E+06
(PID.TID 0000.0001) %MON dynstat_eta_max              =   5.1689212329392E-02
(PID.TID 0000.0001) %MON dynstat_eta_min              =  -2.3206761257448E-02
(PID.TID 0000.0001) %MON dynstat_eta_mean             =   8.2318057980467E-08
(PID.TID 0000.0001) %MON dynstat_eta_sd               =   1.9497257715632E-02
(PID.TID 0000.0001) %MON dynstat_eta_del2             =   1.8538043599671E-05
(PID.TID 0000.0001) %MON dynstat_uvel_max             =   2.8877052681292E-02
(PID.TID 0000.0001) %MON dynstat_uvel_min             =  -1.6092078181598E-02
(PID.TID 0000.0001) %MON dynstat_uvel_mean            =  -2.2402723232400E-07
(PID.TID 0000.0001) %MON dynstat_uvel_sd              =   7.3723486492162E-03
(PID.TID 0000.0001) %MON dynstat_uvel_del2            =   8.2709596907714E-06
(PID.TID 0000.0001) %MON dynstat_vvel_max             =   8.9399933235683E-02
(PID.TID 0000.0001) %MON dynstat_vvel_min             =  -3.3310455004718E-02
(PID.TID 0000.0001) %MON dynstat_vvel_mean            =  -4.7804318591963E-09
(PID.TID 0000.0001) %MON dynstat_vvel_sd              =   1.5887643395624E-02
(PID.TID 0000.0001) %MON dynstat_vvel_del2            =   7.4170133757055E-05
(PID.TID 0000.0001) %MON dynstat_wvel_max             =   1.6973961307958E-08
(PID.TID 0000.0001) %MON dynstat_wvel_min             =  -1.7645252184593E-08
(PID.TID 0000.0001) %MON dynstat_wvel_mean            =   4.2936499590319E-22
(PID.TID 0000.0001) %MON dynstat_wvel_sd              =   7.2841884587861E-09
(PID.TID 0000.0001) %MON dynstat_wvel_del2            =   3.4228633745423E-12
(PID.TID 0000.0001) %MON dynstat_theta_max            =   2.0000000000000E+01
(PID.TID 0000.0001) %MON dynstat_theta_min            =   2.0000000000000E+01
(PID.TID 0000.0001) %MON dynstat_theta_mean           =   2.0000000000000E+01
(PID.TID 0000.0001) %MON dynstat_theta_sd             =   0.0000000000000E+00
(PID.TID 0000.0001) %MON dynstat_theta_del2           =   0.0000000000000E+00
(PID.TID 0000.0001) %MON dynstat_salt_max             =   3.0000000000000E+01
(PID.TID 0000.0001) %MON dynstat_salt_min             =   3.0000000000000E+01
(PID.TID 0000.0001) %MON dynstat_salt_mean            =   3.0000000000000E+01
(PID.TID 0000.0001) %MON dynstat_salt_sd              =   0.0000000000000E+00
(PID.TID 0000.0001) %MON dynstat_salt_del2            =   0.0000000000000E+00
(PID.TID 0000.0001) %MON trAdv_CFL_u_max              =   1.7324757109366E-03
(PID.TID 0000.0001) %MON trAdv_CFL_v_max              =   5.3638958377814E-03
(PID.TID 0000.0001) %MON trAdv_CFL_w_max              =   4.0766774696298E-09
(PID.TID 0000.0001) %MON advcfl_uvel_max              =   1.7326231608775E-03
(PID.TID 0000.0001) %MON advcfl_vvel_max              =   5.3639959941410E-03
(PID.TID 0000.0001) %MON advcfl_wvel_max              =   8.4697210486047E-09
(PID.TID 0000.0001) %MON advcfl_W_hf_max              =   0.0000000000000E+00
(PID.TID 0000.0001) %MON pe_b_mean                    =   3.7292034032627E-07
(PID.TID 0000.0001) %MON ke_max                       =   3.9909383624964E-03
(PID.TID 0000.0001) %MON ke_mean                      =   1.5082796251682E-04
(PID.TID 0000.0001) %MON ke_vol                       =   7.2000000000000E+15
(PID.TID 0000.0001) %MON vort_r_min                   =  -1.5437885996036E-06
(PID.TID 0000.0001) %MON vort_r_max                   =   2.4531732058035E-06
(PID.TID 0000.0001) %MON vort_a_mean                  =   1.0600000000000E-04
(PID.TID 0000.0001) %MON vort_a_sd                    =   3.5378140526630E-06
(PID.TID 0000.0001) %MON vort_p_mean                  =   1.1130000000000E-04
(PID.TID 0000.0001) %MON vort_p_sd                    =   4.1152449475151E-05
(PID.TID 0000.0001) %MON surfExpan_theta_mean         =   8.5857271909302E-21
(PID.TID 0000.0001) %MON surfExpan_salt_mean          =   1.2878550078218E-20
(PID.TID 0000.0001) // =======================================================
(PID.TID 0000.0001) // End MONITOR dynamic field statistics
(PID.TID 0000.0001) // =======================================================
 cg2d: Sum(rhs),rhsMax =  -1.10345870621801E-04  1.49200069754495E-01
 cg2d: Sum(rhs),rhsMax =  -1.11498602360488E-04  1.49203863387626E-01
 cg2d: Sum(rhs),rhsMax =  -1.12558850522853E-04  1.49207647433904E-01
 cg2d: Sum(rhs),rhsMax =  -1.13619766901900E-04  1.49211421725213E-01
 cg2d: Sum(rhs),rhsMax =  -1.14681405323881E-04  1.49215186282989E-01
 cg2d: Sum(rhs),rhsMax =  -1.15743734023637E-04  1.49218941120210E-01
 cg2d: Sum(rhs),rhsMax =  -1.16806743862519E-04  1.49222686222277E-01
 cg2d: Sum(rhs),rhsMax =  -1.17870422566104E-04  1.49226421573882E-01
 cg2d: Sum(rhs),rhsMax =  -1.18934757275052E-04  1.49230147159907E-01
 cg2d: Sum(rhs),rhsMax =  -1.19999735102879E-04  1.49233862965651E-01
 cg2d: Sum(rhs),rhsMax =  -1.21065343566792E-04  1.49237568976453E-01
 cg2d: Sum(rhs),rhsMax =  -1.22131570708088E-04  1.49241265177639E-01
 cg2d: Sum(rhs),rhsMax =  -1.23198404786061E-04  1.49244951554545E-01
 cg2d: Sum(rhs),rhsMax =  -1.24265834309157E-04  1.49248628092547E-01
 cg2d: Sum(rhs),rhsMax =  -1.25333847635866E-04  1.49252294777050E-01
 cg2d: Sum(rhs),rhsMax =  -1.26402433177152E-04  1.49255951593470E-01
 cg2d: Sum(rhs),rhsMax =  -1.27471579175962E-04  1.49259598527226E-01
 cg2d: Sum(rhs),rhsMax =  -1.28541274209710E-04  1.49263235563735E-01
 cg2d: Sum(rhs),rhsMax =  -1.29611506723096E-04  1.49266862688432E-01
 cg2d: Sum(rhs),rhsMax =  -1.30682265200842E-04  1.49270479886762E-01
 cg2d: Sum(rhs),rhsMax =  -1.31753538357903E-04  1.49274087144187E-01
 cg2d: Sum(rhs),rhsMax =  -1.32825314947712E-04  1.49277684446183E-01
 cg2d: Sum(rhs),rhsMax =  -1.33897583785143E-04  1.49281271778239E-01
 cg2d: Sum(rhs),rhsMax =  -1.34970333776133E-04  1.49284849125858E-01
 cg2d: Sum(rhs),rhsMax =  -1.36043553786200E-04  1.49288416474555E-01
 cg2d: Sum(rhs),rhsMax =  -1.37117232726423E-04  1.49291973809857E-01
 cg2d: Sum(rhs),rhsMax =  -1.38191359671257E-04  1.49295521117303E-01
 cg2d: Sum(rhs),rhsMax =  -1.39265923691647E-04  1.49299058382448E-01
 cg2d: Sum(rhs),rhsMax =  -1.40340913925497E-04  1.49302585590860E-01
 cg2d: Sum(rhs),rhsMax =  -1.41416319625279E-04  1.49306102728119E-01
 cg2d: Sum(rhs),rhsMax =  -1.42492130178659E-04  1.49309609779819E-01
 cg2d: Sum(rhs),rhsMax =  -1.43568334809044E-04  1.49313106731568E-01
 cg2d: Sum(rhs),rhsMax =  -1.44644922948003E-04  1.49316593568985E-01
 cg2d: Sum(rhs),rhsMax =  -1.45721884058121E-04  1.49320070277707E-01
 cg2d: Sum(rhs),rhsMax =  -1.46799207597553E-04  1.49323536843380E-01
 cg2d: Sum(rhs),rhsMax =  -1.47876883361765E-04  1.49326993251667E-01
 cg2d: Sum(rhs),rhsMax =  -1.48954900837920E-04  1.49330439488242E-01
 cg2d: Sum(rhs),rhsMax =  -1.50033249791567E-04  1.49333875538794E-01
 cg2d: Sum(rhs),rhsMax =  -1.51111919893324E-04  1.49337301389026E-01
 cg2d: Sum(rhs),rhsMax =  -1.52190901160682E-04  1.49340717024655E-01
 cg2d: Sum(rhs),rhsMax =  -1.53270183404529E-04  1.49344122431411E-01
 cg2d: Sum(rhs),rhsMax =  -1.54349756572583E-04  1.49347517595040E-01
 cg2d: Sum(rhs),rhsMax =  -1.55429610705770E-04  1.49350902501299E-01
 cg2d: Sum(rhs),rhsMax =  -1.56403035023863E-04  1.49354276947606E-01
 cg2d: Sum(rhs),rhsMax =  -1.57376468280542E-04  1.49357641314783E-01
 cg2d: Sum(rhs),rhsMax =  -1.58349820330233E-04  1.49360995367285E-01
 cg2d: Sum(rhs),rhsMax =  -1.59323121717898E-04  1.49364339102633E-01
 cg2d: Sum(rhs),rhsMax =  -1.60296371473146E-04  1.49367672510970E-01
 cg2d: Sum(rhs),rhsMax =  -1.61269560802382E-04  1.49370995577871E-01
 cg2d: Sum(rhs),rhsMax =  -1.62242678044479E-04  1.49374308288619E-01
 cg2d: Sum(rhs),rhsMax =  -1.63215711182881E-04  1.49377610628770E-01
 cg2d: Sum(rhs),rhsMax =  -1.64188649729954E-04  1.49380902584029E-01
 cg2d: Sum(rhs),rhsMax =  -1.65161484889703E-04  1.49384184140188E-01
 cg2d: Sum(rhs),rhsMax =  -1.66134208312838E-04  1.49387455283129E-01
 cg2d: Sum(rhs),rhsMax =  -1.67106812202437E-04  1.49390715998826E-01
 cg2d: Sum(rhs),rhsMax =  -1.68079288574941E-04  1.49393966273289E-01
 cg2d: Sum(rhs),rhsMax =  -1.69051628849879E-04  1.49397206092525E-01
 cg2d: Sum(rhs),rhsMax =  -1.70023824483996E-04  1.49400435442520E-01
 cg2d: Sum(rhs),rhsMax =  -1.70995866965528E-04  1.49403654309254E-01
 cg2d: Sum(rhs),rhsMax =  -1.71967747758765E-04  1.49406862678716E-01
 cg2d: Sum(rhs),rhsMax =  -1.72939458525382E-04  1.49410060536914E-01
 cg2d: Sum(rhs),rhsMax =  -1.73910991199067E-04  1.49413247869884E-01
 cg2d: Sum(rhs),rhsMax =  -1.74882337550189E-04  1.49416424663674E-01
 cg2d: Sum(rhs),rhsMax =  -1.75853489657597E-04  1.49419590904352E-01
 cg2d: Sum(rhs),rhsMax =  -1.76824439422400E-04  1.49422746577998E-01
 cg2d: Sum(rhs),rhsMax =  -1.77795178899358E-04  1.49425891670707E-01
 cg2d: Sum(rhs),rhsMax =  -1.78765700220258E-04  1.49429026168588E-01
 cg2d: Sum(rhs),rhsMax =  -1.79629275195515E-04  1.49432150229878E-01
 cg2d: Sum(rhs),rhsMax =  -1.80492316240008E-04  1.49435263501488E-01
 cg2d: Sum(rhs),rhsMax =  -1.81354934877888E-04  1.49438366136325E-01
 cg2d: Sum(rhs),rhsMax =  -1.82217104797540E-04  1.49441458118724E-01
 cg2d: Sum(rhs),rhsMax =  -1.83078830299369E-04  1.49444539437743E-01
(PID.TID 0000.0001)      cg2d_init_res =   1.27454382402350E-03
(PID.TID 0000.0001)      cg2d_iters(min,last) =      -1      77
(PID.TID 0000.0001)      cg2d_last_res =   9.89169063525125E-08
(PID.TID 0000.0001) // =======================================================
(PID.TID 0000.0001) // Begin MONITOR dynamic field statistics
(PID.TID 0000.0001) // =======================================================
(PID.TID 0000.0001) %MON time_tsnumber                =                  5256
(PID.TID 0000.0001) %MON time_secondsf                =   6.3072000000000E+06
(PID.TID 0000.0001) %MON dynstat_eta_max              =   5.1860314106141E-02
(PID.TID 0000.0001) %MON dynstat_eta_min              =  -2.3011288657417E-02
(PID.TID 0000.0001) %MON dynstat_eta_mean             =   1.3744704583249E-07
(PID.TID 0000.0001) %MON dynstat_eta_sd               =   1.9633342679220E-02
(PID.TID 0000.0001) %MON dynstat_eta_del2             =   1.8570626452254E-05
(PID.TID 0000.0001) %MON dynstat_uvel_max             =   2.9050840861921E-02
(PID.TID 0000.0001) %MON dynstat_uvel_min             =  -1.6259250532990E-02
(PID.TID 0000.0001) %MON dynstat_uvel_mean            =  -2.0815536122421E-07
(PID.TID 0000.0001) %MON dynstat_uvel_sd              =   7.3671944025181E-03
(PID.TID 0000.0001) %MON dynstat_uvel_del2            =   8.2897628318851E-06
(PID.TID 0000.0001) %MON dynstat_vvel_max             =   8.9506901346533E-02
(PID.TID 0000.0001) %MON dynstat_vvel_min             =  -3.3320793907058E-02
(PID.TID 0000.0001) %MON dynstat_vvel_mean            =  -3.4540224287619E-09
(PID.TID 0000.0001) %MON dynstat_vvel_sd              =   1.5902401090265E-02
(PID.TID 0000.0001) %MON dynstat_vvel_del2            =   7.4422908779646E-05
(PID.TID 0000.0001) %MON dynstat_wvel_max             =   1.6133861937269E-08
(PID.TID 0000.0001) %MON dynstat_wvel_min             =  -1.8195250959252E-08
(PID.TID 0000.0001) %MON dynstat_wvel_mean            =  -2.3858856618770E-21
(PID.TID 0000.0001) %MON dynstat_wvel_sd              =   7.2493975964954E-09
(PID.TID 0000.0001) %MON dynstat_wvel_del2            =   3.3895826773087E-12
(PID.TID 0000.0001) %MON dynstat_theta_max            =   2.0000000000000E+01
(PID.TID 0000.0001) %MON dynstat_theta_min            =   2.0000000000000E+01
(PID.TID 0000.0001) %MON dynstat_theta_mean           =   2.0000000000000E+01
(PID.TID 0000.0001) %MON dynstat_theta_sd             =   0.0000000000000E+00
(PID.TID 0000.0001) %MON dynstat_theta_del2           =   0.0000000000000E+00
(PID.TID 0000.0001) %MON dynstat_salt_max             =   3.0000000000000E+01
(PID.TID 0000.0001) %MON dynstat_salt_min             =   3.0000000000000E+01
(PID.TID 0000.0001) %MON dynstat_salt_mean            =   3.0000000000000E+01
(PID.TID 0000.0001) %MON dynstat_salt_sd              =   0.0000000000000E+00
(PID.TID 0000.0001) %MON dynstat_salt_del2            =   0.0000000000000E+00
(PID.TID 0000.0001) %MON trAdv_CFL_u_max              =   1.7429083751052E-03
(PID.TID 0000.0001) %MON trAdv_CFL_v_max              =   5.3703360852446E-03
(PID.TID 0000.0001) %MON trAdv_CFL_w_max              =   3.8748254077043E-09
(PID.TID 0000.0001) %MON advcfl_uvel_max              =   1.7430504517152E-03
(PID.TID 0000.0001) %MON advcfl_vvel_max              =   5.3704140807920E-03
(PID.TID 0000.0001) %MON advcfl_wvel_max              =   8.7337204604410E-09
(PID.TID 0000.0001) %MON advcfl_W_hf_max              =   0.0000000000000E+00
(PID.TID 0000.0001) %MON pe_b_mean                    =   3.7814425002776E-07
(PID.TID 0000.0001) %MON ke_max                       =   4.0022687096878E-03
(PID.TID 0000.0001) %MON ke_mean                      =   1.5102127430638E-04
(PID.TID 0000.0001) %MON ke_vol                       =   7.2000000000000E+15
(PID.TID 0000.0001) %MON vort_r_min                   =  -1.5497036311256E-06
(PID.TID 0000.0001) %MON vort_r_max                   =   2.4562359651522E-06
(PID.TID 0000.0001) %MON vort_a_mean                  =   1.0600000000000E-04
(PID.TID 0000.0001) %MON vort_a_sd                    =   3.5378987197134E-06
(PID.TID 0000.0001) %MON vort_p_mean                  =   1.1130000000000E-04
(PID.TID 0000.0001) %MON vort_p_sd                    =   4.1152400200748E-05
(PID.TID 0000.0001) %MON surfExpan_theta_mean         =  -4.7713576299834E-20
(PID.TID 0000.0001) %MON surfExpan_salt_mean          =  -7.1571153941679E-20
(PID.TID 0000.0001) // =======================================================
(PID.TID 0000.0001) // End MONITOR dynamic field statistics
(PID.TID 0000.0001) // =======================================================
 cg2d: Sum(rhs),rhsMax =  -1.83940105464481E-04  1.49447610080529E-01
 cg2d: Sum(rhs),rhsMax =  -1.84800920246104E-04  1.49450670032552E-01
 cg2d: Sum(rhs),rhsMax =  -1.85661263966073E-04  1.49453719279529E-01
 cg2d: Sum(rhs),rhsMax =  -1.86521128058121E-04  1.49456757807373E-01
 cg2d: Sum(rhs),rhsMax =  -1.87380506147049E-04  1.49459785602164E-01
 cg2d: Sum(rhs),rhsMax =  -1.88239392910207E-04  1.49462802650150E-01
 cg2d: Sum(rhs),rhsMax =  -1.88978538548082E-04  1.49465808835940E-01
 cg2d: Sum(rhs),rhsMax =  -1.89717106997189E-04  1.49468804363977E-01
 cg2d: Sum(rhs),rhsMax =  -1.90455014401144E-04  1.49471789094348E-01
 cg2d: Sum(rhs),rhsMax =  -1.91192308300382E-04  1.49474763018364E-01
 cg2d: Sum(rhs),rhsMax =  -1.91928996286628E-04  1.49477726128524E-01
 cg2d: Sum(rhs),rhsMax =  -1.92665074391587E-04  1.49480678412226E-01
 cg2d: Sum(rhs),rhsMax =  -1.93400533389463E-04  1.49483619855061E-01
 cg2d: Sum(rhs),rhsMax =  -1.94135363898602E-04  1.49486550442641E-01
 cg2d: Sum(rhs),rhsMax =  -1.94869558837301E-04  1.49489470160875E-01
 cg2d: Sum(rhs),rhsMax =  -1.95603114029969E-04  1.49492378995941E-01
 cg2d: Sum(rhs),rhsMax =  -1.96336026639624E-04  1.49495276934257E-01
 cg2d: Sum(rhs),rhsMax =  -1.97068294161206E-04  1.49498163962404E-01
 cg2d: Sum(rhs),rhsMax =  -1.97799913402661E-04  1.49501040067012E-01
 cg2d: Sum(rhs),rhsMax =  -1.98530880555308E-04  1.49503905234680E-01
 cg2d: Sum(rhs),rhsMax =  -1.99261191493037E-04  1.49506759451956E-01
 cg2d: Sum(rhs),rhsMax =  -1.99990842302371E-04  1.49509602705363E-01
 cg2d: Sum(rhs),rhsMax =  -2.00719828771936E-04  1.49512434981433E-01
 cg2d: Sum(rhs),rhsMax =  -2.01448147146689E-04  1.49515256266722E-01
 cg2d: Sum(rhs),rhsMax =  -2.02175793887746E-04  1.49518066547814E-01
 cg2d: Sum(rhs),rhsMax =  -2.02902765619915E-04  1.49520865811322E-01
 cg2d: Sum(rhs),rhsMax =  -2.03629058668605E-04  1.49523654043870E-01
 cg2d: Sum(rhs),rhsMax =  -2.04354669479784E-04  1.49526431232098E-01
 cg2d: Sum(rhs),rhsMax =  -2.05079594581968E-04  1.49529197362664E-01
 cg2d: Sum(rhs),rhsMax =  -2.05803830523685E-04  1.49531952422238E-01
 cg2d: Sum(rhs),rhsMax =  -2.06527373791385E-04  1.49534696397512E-01
 cg2d: Sum(rhs),rhsMax =  -2.07250221068766E-04  1.49537429275195E-01
 cg2d: Sum(rhs),rhsMax =  -2.07972368863169E-04  1.49540151042015E-01
 cg2d: Sum(rhs),rhsMax =  -2.08693813986843E-04  1.49542861684719E-01
 cg2d: Sum(rhs),rhsMax =  -2.09414553164301E-04  1.49545561190067E-01
 cg2d: Sum(rhs),rhsMax =  -2.10134583105314E-04  1.49548249544836E-01
 cg2d: Sum(rhs),rhsMax =  -2.10853900579466E-04  1.49550926735823E-01
 cg2d: Sum(rhs),rhsMax =  -2.11572502491502E-04  1.49553592749837E-01
 cg2d: Sum(rhs),rhsMax =  -2.12290385796086E-04  1.49556247573707E-01
 cg2d: Sum(rhs),rhsMax =  -2.13007547246576E-04  1.49558891194280E-01
 cg2d: Sum(rhs),rhsMax =  -2.13599360830387E-04  1.49561523718142E-01
 cg2d: Sum(rhs),rhsMax =  -2.14190424061326E-04  1.49564144917659E-01
 cg2d: Sum(rhs),rhsMax =  -2.14780857035625E-04  1.49566754856942E-01
 cg2d: Sum(rhs),rhsMax =  -2.15370646297313E-04  1.49569353535776E-01
 cg2d: Sum(rhs),rhsMax =  -2.15959803505496E-04  1.49571940946334E-01
 cg2d: Sum(rhs),rhsMax =  -2.16548327202834E-04  1.49574517077678E-01
 cg2d: Sum(rhs),rhsMax =  -2.17136210406538E-04  1.49577081915839E-01
 cg2d: Sum(rhs),rhsMax =  -2.17723445770646E-04  1.49579635446828E-01
 cg2d: Sum(rhs),rhsMax =  -2.18310028764822E-04  1.49582177656934E-01
 cg2d: Sum(rhs),rhsMax =  -2.18784553327635E-04  1.49584708346000E-01
 cg2d: Sum(rhs),rhsMax =  -2.19258616640432E-04  1.49587227891527E-01
 cg2d: Sum(rhs),rhsMax =  -2.19732165405008E-04  1.49589736065437E-01
 cg2d: Sum(rhs),rhsMax =  -2.20205240506464E-04  1.49592232860783E-01
 cg2d: Sum(rhs),rhsMax =  -2.20677850480100E-04  1.49594718271457E-01
 cg2d: Sum(rhs),rhsMax =  -2.21149993570728E-04  1.49597192286180E-01
 cg2d: Sum(rhs),rhsMax =  -2.21621663464702E-04  1.49599654891396E-01
 cg2d: Sum(rhs),rhsMax =  -2.22092854125186E-04  1.49602106073211E-01
 cg2d: Sum(rhs),rhsMax =  -2.22563561234873E-04  1.49604545818023E-01
 cg2d: Sum(rhs),rhsMax =  -2.23033783409257E-04  1.49606974112633E-01
 cg2d: Sum(rhs),rhsMax =  -2.23503520199436E-04  1.49609390944203E-01
 cg2d: Sum(rhs),rhsMax =  -2.23972771484861E-04  1.49611796300109E-01
 cg2d: Sum(rhs),rhsMax =  -2.24441536460323E-04  1.49614190167781E-01
 cg2d: Sum(rhs),rhsMax =  -2.24909813711331E-04  1.49616572534596E-01
 cg2d: Sum(rhs),rhsMax =  -2.25377601537745E-04  1.49618943387868E-01
 cg2d: Sum(rhs),rhsMax =  -2.25844898235738E-04  1.49621302714873E-01
 cg2d: Sum(rhs),rhsMax =  -2.26311702125482E-04  1.49623650502898E-01
 cg2d: Sum(rhs),rhsMax =  -2.26778011919736E-04  1.49625986739261E-01
 cg2d: Sum(rhs),rhsMax =  -2.27243826118808E-04  1.49628311411315E-01
 cg2d: Sum(rhs),rhsMax =  -2.27709143386110E-04  1.49630624506440E-01
 cg2d: Sum(rhs),rhsMax =  -2.28173962470856E-04  1.49632926012030E-01
 cg2d: Sum(rhs),rhsMax =  -2.28638282019465E-04  1.49635215915498E-01
 cg2d: Sum(rhs),rhsMax =  -2.29102100460140E-04  1.49637494204269E-01
(PID.TID 0000.0001)      cg2d_init_res =   1.26488616811058E-03
(PID.TID 0000.0001)      cg2d_iters(min,last) =      -1      80
(PID.TID 0000.0001)      cg2d_last_res =   8.98362362643239E-08
(PID.TID 0000.0001) // =======================================================
(PID.TID 0000.0001) // Begin MONITOR dynamic field statistics
(PID.TID 0000.0001) // =======================================================
(PID.TID 0000.0001) %MON time_tsnumber                =                  5328
(PID.TID 0000.0001) %MON time_secondsf                =   6.3936000000000E+06
(PID.TID 0000.0001) %MON dynstat_eta_max              =   5.2042312612630E-02
(PID.TID 0000.0001) %MON dynstat_eta_min              =  -2.2780760690057E-02
(PID.TID 0000.0001) %MON dynstat_eta_mean             =   1.7176057014257E-07
(PID.TID 0000.0001) %MON dynstat_eta_sd               =   1.9741997209086E-02
(PID.TID 0000.0001) %MON dynstat_eta_del2             =   1.8600729971741E-05
(PID.TID 0000.0001) %MON dynstat_uvel_max             =   2.9217475860154E-02
(PID.TID 0000.0001) %MON dynstat_uvel_min             =  -1.6400011392033E-02
(PID.TID 0000.0001) %MON dynstat_uvel_mean            =  -1.8920546346525E-07
(PID.TID 0000.0001) %MON dynstat_uvel_sd              =   7.3522883321599E-03
(PID.TID 0000.0001) %MON dynstat_uvel_del2            =   8.3013732765362E-06
(PID.TID 0000.0001) %MON dynstat_vvel_max             =   8.9585711987958E-02
(PID.TID 0000.0001) %MON dynstat_vvel_min             =  -3.3358611322582E-02
(PID.TID 0000.0001) %MON dynstat_vvel_mean            =  -2.1528175075911E-09
(PID.TID 0000.0001) %MON dynstat_vvel_sd              =   1.5915428712241E-02
(PID.TID 0000.0001) %MON dynstat_vvel_del2            =   7.4665119423128E-05
(PID.TID 0000.0001) %MON dynstat_wvel_max             =   1.5234036402253E-08
(PID.TID 0000.0001) %MON dynstat_wvel_min             =  -1.8683837676654E-08
(PID.TID 0000.0001) %MON dynstat_wvel_mean            =   5.0189987632621E-21
(PID.TID 0000.0001) %MON dynstat_wvel_sd              =   7.2130963205770E-09
(PID.TID 0000.0001) %MON dynstat_wvel_del2            =   3.3555713047345E-12
(PID.TID 0000.0001) %MON dynstat_theta_max            =   2.0000000000000E+01
(PID.TID 0000.0001) %MON dynstat_theta_min            =   2.0000000000000E+01
(PID.TID 0000.0001) %MON dynstat_theta_mean           =   2.0000000000000E+01
(PID.TID 0000.0001) %MON dynstat_theta_sd             =   0.0000000000000E+00
(PID.TID 0000.0001) %MON dynstat_theta_del2           =   0.0000000000000E+00
(PID.TID 0000.0001) %MON dynstat_salt_max             =   3.0000000000000E+01
(PID.TID 0000.0001) %MON dynstat_salt_min             =   3.0000000000000E+01
(PID.TID 0000.0001) %MON dynstat_salt_mean            =   3.0000000000000E+01
(PID.TID 0000.0001) %MON dynstat_salt_sd              =   0.0000000000000E+00
(PID.TID 0000.0001) %MON dynstat_salt_del2            =   0.0000000000000E+00
(PID.TID 0000.0001) %MON trAdv_CFL_u_max              =   1.7529130011999E-03
(PID.TID 0000.0001) %MON trAdv_CFL_v_max              =   5.3750894327447E-03
(PID.TID 0000.0001) %MON trAdv_CFL_w_max              =   3.6593869924312E-09
(PID.TID 0000.0001) %MON advcfl_uvel_max              =   1.7530485516093E-03
(PID.TID 0000.0001) %MON advcfl_vvel_max              =   5.3751427192775E-03
(PID.TID 0000.0001) %MON advcfl_wvel_max              =   8.9682420847937E-09
(PID.TID 0000.0001) %MON advcfl_W_hf_max              =   0.0000000000000E+00
(PID.TID 0000.0001) %MON pe_b_mean                    =   3.8234127121023E-07
(PID.TID 0000.0001) %MON ke_max                       =   4.0110503793515E-03
(PID.TID 0000.0001) %MON ke_mean                      =   1.5111719896765E-04
(PID.TID 0000.0001) %MON ke_vol                       =   7.2000000000000E+15
(PID.TID 0000.0001) %MON vort_r_min                   =  -1.5553551223685E-06
(PID.TID 0000.0001) %MON vort_r_max                   =   2.4588822251496E-06
(PID.TID 0000.0001) %MON vort_a_mean                  =   1.0600000000000E-04
(PID.TID 0000.0001) %MON vort_a_sd                    =   3.5379762828932E-06
(PID.TID 0000.0001) %MON vort_p_mean                  =   1.1130000000000E-04
(PID.TID 0000.0001) %MON vort_p_sd                    =   4.1152337465421E-05
(PID.TID 0000.0001) %MON surfExpan_theta_mean         =   1.0037537221150E-19
(PID.TID 0000.0001) %MON surfExpan_salt_mean          =   1.5056100563824E-19
(PID.TID 0000.0001) // =======================================================
(PID.TID 0000.0001) // End MONITOR dynamic field statistics
(PID.TID 0000.0001) // =======================================================
 cg2d: Sum(rhs),rhsMax =  -2.29565416473418E-04  1.49639760865791E-01
 cg2d: Sum(rhs),rhsMax =  -2.30028228779478E-04  1.49642015887530E-01
 cg2d: Sum(rhs),rhsMax =  -2.30490535826590E-04  1.49644259256980E-01
 cg2d: Sum(rhs),rhsMax =  -2.30952336346251E-04  1.49646490961649E-01
 cg2d: Sum(rhs),rhsMax =  -2.31413629043830E-04  1.49648710989070E-01
 cg2d: Sum(rhs),rhsMax =  -2.31874412455043E-04  1.49650919326790E-01
 cg2d: Sum(rhs),rhsMax =  -2.32334685341496E-04  1.49653115962377E-01
 cg2d: Sum(rhs),rhsMax =  -2.32794446296327E-04  1.49655300883416E-01
 cg2d: Sum(rhs),rhsMax =  -2.33253694015382E-04  1.49657474077507E-01
 cg2d: Sum(rhs),rhsMax =  -2.33712427212817E-04  1.49659635532276E-01
 cg2d: Sum(rhs),rhsMax =  -2.34170644510773E-04  1.49661785235363E-01
 cg2d: Sum(rhs),rhsMax =  -2.34628344670856E-04  1.49663923174435E-01
 cg2d: Sum(rhs),rhsMax =  -2.35085526258861E-04  1.49666049337170E-01
 cg2d: Sum(rhs),rhsMax =  -2.35542188137412E-04  1.49668163711274E-01
 cg2d: Sum(rhs),rhsMax =  -2.35998328893606E-04  1.49670266284469E-01
 cg2d: Sum(rhs),rhsMax =  -2.36453947353566E-04  1.49672357044498E-01
 cg2d: Sum(rhs),rhsMax =  -2.36909042147593E-04  1.49674435979122E-01
 cg2d: Sum(rhs),rhsMax =  -2.37363611984817E-04  1.49676503076122E-01
 cg2d: Sum(rhs),rhsMax =  -2.37817655710059E-04  1.49678558323303E-01
 cg2d: Sum(rhs),rhsMax =  -2.38271172031770E-04  1.49680601708481E-01
 cg2d: Sum(rhs),rhsMax =  -2.38724159564945E-04  1.49682633219500E-01
 cg2d: Sum(rhs),rhsMax =  -2.39176617225878E-04  1.49684652844221E-01
 cg2d: Sum(rhs),rhsMax =  -2.39628543709007E-04  1.49686660570525E-01
 cg2d: Sum(rhs),rhsMax =  -2.40079937803474E-04  1.49688656386313E-01
 cg2d: Sum(rhs),rhsMax =  -2.40530798319894E-04  1.49690640279508E-01
 cg2d: Sum(rhs),rhsMax =  -2.40981123975323E-04  1.49692612238052E-01
 cg2d: Sum(rhs),rhsMax =  -2.41430913611149E-04  1.49694572249905E-01
 cg2d: Sum(rhs),rhsMax =  -2.41880165915875E-04  1.49696520303051E-01
 cg2d: Sum(rhs),rhsMax =  -2.42328879843135E-04  1.49698456385492E-01
 cg2d: Sum(rhs),rhsMax =  -2.42777054114911E-04  1.49700380485252E-01
 cg2d: Sum(rhs),rhsMax =  -2.43224687562250E-04  1.49702292590374E-01
 cg2d: Sum(rhs),rhsMax =  -2.43671779028463E-04  1.49704192688923E-01
 cg2d: Sum(rhs),rhsMax =  -2.44118327288951E-04  1.49706080768981E-01
 cg2d: Sum(rhs),rhsMax =  -2.44564331165499E-04  1.49707956818655E-01
 cg2d: Sum(rhs),rhsMax =  -2.45009789539287E-04  1.49709820826070E-01
 cg2d: Sum(rhs),rhsMax =  -2.45454701371152E-04  1.49711672779372E-01
 cg2d: Sum(rhs),rhsMax =  -2.45899065382491E-04  1.49713512666728E-01
 cg2d: Sum(rhs),rhsMax =  -2.46342880529159E-04  1.49715340476327E-01
 cg2d: Sum(rhs),rhsMax =  -2.46786145621136E-04  1.49717156196376E-01
 cg2d: Sum(rhs),rhsMax =  -2.47228859496613E-04  1.49718959815105E-01
 cg2d: Sum(rhs),rhsMax =  -2.47671021122542E-04  1.49720751320764E-01
 cg2d: Sum(rhs),rhsMax =  -2.48112629357217E-04  1.49722530701624E-01
 cg2d: Sum(rhs),rhsMax =  -2.48553683151506E-04  1.49724297945976E-01
 cg2d: Sum(rhs),rhsMax =  -2.48994181410623E-04  1.49726053042135E-01
 cg2d: Sum(rhs),rhsMax =  -2.49434122899175E-04  1.49727795978433E-01
 cg2d: Sum(rhs),rhsMax =  -2.49873506701301E-04  1.49729526743228E-01
 cg2d: Sum(rhs),rhsMax =  -2.50312331693570E-04  1.49731245324894E-01
 cg2d: Sum(rhs),rhsMax =  -2.50750596821076E-04  1.49732951711829E-01
 cg2d: Sum(rhs),rhsMax =  -2.51188301019219E-04  1.49734645892452E-01
 cg2d: Sum(rhs),rhsMax =  -2.51625443214948E-04  1.49736327855202E-01
 cg2d: Sum(rhs),rhsMax =  -2.52062022396242E-04  1.49737997588541E-01
 cg2d: Sum(rhs),rhsMax =  -2.52498037486818E-04  1.49739655080951E-01
 cg2d: Sum(rhs),rhsMax =  -2.52933487501193E-04  1.49741300320939E-01
 cg2d: Sum(rhs),rhsMax =  -2.53368371336298E-04  1.49742933297026E-01
 cg2d: Sum(rhs),rhsMax =  -2.53802688152516E-04  1.49744553997761E-01
 cg2d: Sum(rhs),rhsMax =  -2.54236436854033E-04  1.49746162411712E-01
 cg2d: Sum(rhs),rhsMax =  -2.54669616335085E-04  1.49747758527470E-01
 cg2d: Sum(rhs),rhsMax =  -2.55102225723588E-04  1.49749342333646E-01
 cg2d: Sum(rhs),rhsMax =  -2.55534264074403E-04  1.49750913818873E-01
 cg2d: Sum(rhs),rhsMax =  -2.55965730307916E-04  1.49752472971805E-01
 cg2d: Sum(rhs),rhsMax =  -2.56396623433313E-04  1.49754019781122E-01
 cg2d: Sum(rhs),rhsMax =  -2.56826942651634E-04  1.49755554235519E-01
 cg2d: Sum(rhs),rhsMax =  -2.57256686764660E-04  1.49757076323718E-01
 cg2d: Sum(rhs),rhsMax =  -2.57685855068394E-04  1.49758586034461E-01
 cg2d: Sum(rhs),rhsMax =  -2.58114446509946E-04  1.49760083356511E-01
 cg2d: Sum(rhs),rhsMax =  -2.58542460149310E-04  1.49761568278656E-01
 cg2d: Sum(rhs),rhsMax =  -2.58969895003485E-04  1.49763040789702E-01
 cg2d: Sum(rhs),rhsMax =  -2.59396750315036E-04  1.49764500878480E-01
 cg2d: Sum(rhs),rhsMax =  -2.59823025001978E-04  1.49765948533843E-01
 cg2d: Sum(rhs),rhsMax =  -2.60248718322082E-04  1.49767383744664E-01
 cg2d: Sum(rhs),rhsMax =  -2.60673829248728E-04  1.49768806499840E-01
 cg2d: Sum(rhs),rhsMax =  -2.61098356822720E-04  1.49770216788289E-01
(PID.TID 0000.0001)      cg2d_init_res =   1.25648404133171E-03
(PID.TID 0000.0001)      cg2d_iters(min,last) =      -1      80
(PID.TID 0000.0001)      cg2d_last_res =   8.83128183837411E-08
(PID.TID 0000.0001) // =======================================================
(PID.TID 0000.0001) // Begin MONITOR dynamic field statistics
(PID.TID 0000.0001) // =======================================================
(PID.TID 0000.0001) %MON time_tsnumber                =                  5400
(PID.TID 0000.0001) %MON time_secondsf                =   6.4800000000000E+06
(PID.TID 0000.0001) %MON dynstat_eta_max              =   5.2228904604327E-02
(PID.TID 0000.0001) %MON dynstat_eta_min              =  -2.2518327877922E-02
(PID.TID 0000.0001) %MON dynstat_eta_mean             =   1.9584308591016E-07
(PID.TID 0000.0001) %MON dynstat_eta_sd               =   1.9821689631156E-02
(PID.TID 0000.0001) %MON dynstat_eta_del2             =   1.8628326326759E-05
(PID.TID 0000.0001) %MON dynstat_uvel_max             =   2.9375601591082E-02
(PID.TID 0000.0001) %MON dynstat_uvel_min             =  -1.6516085310400E-02
(PID.TID 0000.0001) %MON dynstat_uvel_mean            =  -1.6745603212730E-07
(PID.TID 0000.0001) %MON dynstat_uvel_sd              =   7.3279208516609E-03
(PID.TID 0000.0001) %MON dynstat_uvel_del2            =   8.3063021485887E-06
(PID.TID 0000.0001) %MON dynstat_vvel_max             =   8.9633404700090E-02
(PID.TID 0000.0001) %MON dynstat_vvel_min             =  -3.3433111284970E-02
(PID.TID 0000.0001) %MON dynstat_vvel_mean            =  -8.9659023919189E-10
(PID.TID 0000.0001) %MON dynstat_vvel_sd              =   1.5926093309087E-02
(PID.TID 0000.0001) %MON dynstat_vvel_del2            =   7.4894965190839E-05
(PID.TID 0000.0001) %MON dynstat_wvel_max             =   1.4319360198569E-08
(PID.TID 0000.0001) %MON dynstat_wvel_min             =  -1.9108892451040E-08
(PID.TID 0000.0001) %MON dynstat_wvel_mean            =  -8.8779933725568E-22
(PID.TID 0000.0001) %MON dynstat_wvel_sd              =   7.1761843666944E-09
(PID.TID 0000.0001) %MON dynstat_wvel_del2            =   3.3233729472651E-12
(PID.TID 0000.0001) %MON dynstat_theta_max            =   2.0000000000000E+01
(PID.TID 0000.0001) %MON dynstat_theta_min            =   2.0000000000000E+01
(PID.TID 0000.0001) %MON dynstat_theta_mean           =   2.0000000000000E+01
(PID.TID 0000.0001) %MON dynstat_theta_sd             =   0.0000000000000E+00
(PID.TID 0000.0001) %MON dynstat_theta_del2           =   0.0000000000000E+00
(PID.TID 0000.0001) %MON dynstat_salt_max             =   3.0000000000000E+01
(PID.TID 0000.0001) %MON dynstat_salt_min             =   3.0000000000000E+01
(PID.TID 0000.0001) %MON dynstat_salt_mean            =   3.0000000000000E+01
(PID.TID 0000.0001) %MON dynstat_salt_sd              =   0.0000000000000E+00
(PID.TID 0000.0001) %MON dynstat_salt_del2            =   0.0000000000000E+00
(PID.TID 0000.0001) %MON trAdv_CFL_u_max              =   1.7624081762364E-03
(PID.TID 0000.0001) %MON trAdv_CFL_v_max              =   5.3779780843610E-03
(PID.TID 0000.0001) %MON trAdv_CFL_w_max              =   3.4396107133012E-09
(PID.TID 0000.0001) %MON advcfl_uvel_max              =   1.7625360954649E-03
(PID.TID 0000.0001) %MON advcfl_vvel_max              =   5.3780042820054E-03
(PID.TID 0000.0001) %MON advcfl_wvel_max              =   9.1722683764994E-09
(PID.TID 0000.0001) %MON advcfl_W_hf_max              =   0.0000000000000E+00
(PID.TID 0000.0001) %MON pe_b_mean                    =   3.8543429165466E-07
(PID.TID 0000.0001) %MON ke_max                       =   4.0170065474212E-03
(PID.TID 0000.0001) %MON ke_mean                      =   1.5110827879528E-04
(PID.TID 0000.0001) %MON ke_vol                       =   7.2000000000000E+15
(PID.TID 0000.0001) %MON vort_r_min                   =  -1.5604512185180E-06
(PID.TID 0000.0001) %MON vort_r_max                   =   2.4606818837018E-06
(PID.TID 0000.0001) %MON vort_a_mean                  =   1.0600000000000E-04
(PID.TID 0000.0001) %MON vort_a_sd                    =   3.5380459227727E-06
(PID.TID 0000.0001) %MON vort_p_mean                  =   1.1130000000000E-04
(PID.TID 0000.0001) %MON vort_p_sd                    =   4.1152262928317E-05
(PID.TID 0000.0001) %MON surfExpan_theta_mean         =  -1.7755041881173E-20
(PID.TID 0000.0001) %MON surfExpan_salt_mean          =  -2.6634536551582E-20
(PID.TID 0000.0001) // =======================================================
(PID.TID 0000.0001) // End MONITOR dynamic field statistics
(PID.TID 0000.0001) // =======================================================
 cg2d: Sum(rhs),rhsMax =  -2.61522300381517E-04  1.49771614598954E-01
 cg2d: Sum(rhs),rhsMax =  -2.61945658859522E-04  1.49772999920795E-01
 cg2d: Sum(rhs),rhsMax =  -2.62368431470655E-04  1.49774372742799E-01
 cg2d: Sum(rhs),rhsMax =  -2.62790617375509E-04  1.49775733053975E-01
 cg2d: Sum(rhs),rhsMax =  -2.63212215717964E-04  1.49777080843352E-01
 cg2d: Sum(rhs),rhsMax =  -2.63633225566596E-04  1.49778416099983E-01
 cg2d: Sum(rhs),rhsMax =  -2.64053646185969E-04  1.49779738812943E-01
 cg2d: Sum(rhs),rhsMax =  -2.64473476651241E-04  1.49781048971330E-01
 cg2d: Sum(rhs),rhsMax =  -2.64892716194634E-04  1.49782346564266E-01
 cg2d: Sum(rhs),rhsMax =  -2.65311363986874E-04  1.49783631580891E-01
 cg2d: Sum(rhs),rhsMax =  -2.65729419179503E-04  1.49784904010373E-01
 cg2d: Sum(rhs),rhsMax =  -2.66146881031870E-04  1.49786163841899E-01
 cg2d: Sum(rhs),rhsMax =  -2.66563748733400E-04  1.49787411064681E-01
 cg2d: Sum(rhs),rhsMax =  -2.66980021421935E-04  1.49788645667953E-01
 cg2d: Sum(rhs),rhsMax =  -2.67395698381873E-04  1.49789867640971E-01
 cg2d: Sum(rhs),rhsMax =  -2.67810778785671E-04  1.49791076973017E-01
 cg2d: Sum(rhs),rhsMax =  -2.68225261869154E-04  1.49792273653390E-01
 cg2d: Sum(rhs),rhsMax =  -2.68639146962998E-04  1.49793457671418E-01
 cg2d: Sum(rhs),rhsMax =  -2.69052433275535E-04  1.49794629016448E-01
 cg2d: Sum(rhs),rhsMax =  -2.69465120055827E-04  1.49795787677853E-01
 cg2d: Sum(rhs),rhsMax =  -2.69877206431769E-04  1.49796933645026E-01
 cg2d: Sum(rhs),rhsMax =  -2.70288691764661E-04  1.49798066907387E-01
 cg2d: Sum(rhs),rhsMax =  -2.70699575379139E-04  1.49799187454375E-01
 cg2d: Sum(rhs),rhsMax =  -2.71109856577693E-04  1.49800295275455E-01
 cg2d: Sum(rhs),rhsMax =  -2.71519534454156E-04  1.49801390360114E-01
 cg2d: Sum(rhs),rhsMax =  -2.71928608470748E-04  1.49802472697862E-01
 cg2d: Sum(rhs),rhsMax =  -2.72337077787546E-04  1.49803542278234E-01
 cg2d: Sum(rhs),rhsMax =  -2.72744941845319E-04  1.49804599090788E-01
 cg2d: Sum(rhs),rhsMax =  -2.73152199875960E-04  1.49805643125103E-01
 cg2d: Sum(rhs),rhsMax =  -2.73558851296662E-04  1.49806674370783E-01
 cg2d: Sum(rhs),rhsMax =  -2.73964895410402E-04  1.49807692817458E-01
 cg2d: Sum(rhs),rhsMax =  -2.74370331511243E-04  1.49808698454777E-01
 cg2d: Sum(rhs),rhsMax =  -2.74775158914960E-04  1.49809691272415E-01
 cg2d: Sum(rhs),rhsMax =  -2.75179377059087E-04  1.49810671260072E-01
 cg2d: Sum(rhs),rhsMax =  -2.75582985061061E-04  1.49811638407468E-01
 cg2d: Sum(rhs),rhsMax =  -2.75985982625295E-04  1.49812592704348E-01
 cg2d: Sum(rhs),rhsMax =  -2.76388368835166E-04  1.49813534140484E-01
 cg2d: Sum(rhs),rhsMax =  -2.76790143151075E-04  1.49814462705668E-01
 cg2d: Sum(rhs),rhsMax =  -2.77191305056512E-04  1.49815378389717E-01
 cg2d: Sum(rhs),rhsMax =  -2.77591853790296E-04  1.49816281182472E-01
 cg2d: Sum(rhs),rhsMax =  -2.77991788858616E-04  1.49817171073797E-01
 cg2d: Sum(rhs),rhsMax =  -2.78391109544811E-04  1.49818048053580E-01
 cg2d: Sum(rhs),rhsMax =  -2.78789815331118E-04  1.49818912111735E-01
 cg2d: Sum(rhs),rhsMax =  -2.79187905661966E-04  1.49819763238199E-01
 cg2d: Sum(rhs),rhsMax =  -2.79585379818306E-04  1.49820601422930E-01
 cg2d: Sum(rhs),rhsMax =  -2.79982237429630E-04  1.49821426655916E-01
 cg2d: Sum(rhs),rhsMax =  -2.80378477739754E-04  1.49822238927163E-01
 cg2d: Sum(rhs),rhsMax =  -2.80774100264411E-04  1.49823038226704E-01
 cg2d: Sum(rhs),rhsMax =  -2.81169104493652E-04  1.49823824544599E-01
 cg2d: Sum(rhs),rhsMax =  -2.81563489748048E-04  1.49824597870925E-01
 cg2d: Sum(rhs),rhsMax =  -2.81957255649135E-04  1.49825358195790E-01
 cg2d: Sum(rhs),rhsMax =  -2.82350401504492E-04  1.49826105509326E-01
 cg2d: Sum(rhs),rhsMax =  -2.82742926903420E-04  1.49826839801684E-01
 cg2d: Sum(rhs),rhsMax =  -2.83134831177675E-04  1.49827561063044E-01
 cg2d: Sum(rhs),rhsMax =  -2.83526113961740E-04  1.49828269283609E-01
 cg2d: Sum(rhs),rhsMax =  -2.83916774769082E-04  1.49828964453606E-01
 cg2d: Sum(rhs),rhsMax =  -2.84306812882281E-04  1.49829646563288E-01
 cg2d: Sum(rhs),rhsMax =  -2.84696228017128E-04  1.49830315602931E-01
 cg2d: Sum(rhs),rhsMax =  -2.85085019530047E-04  1.49830971562836E-01
 cg2d: Sum(rhs),rhsMax =  -2.85473187030596E-04  1.49831614433329E-01
 cg2d: Sum(rhs),rhsMax =  -2.85860729903045E-04  1.49832244204761E-01
 cg2d: Sum(rhs),rhsMax =  -2.86247647739494E-04  1.49832860867505E-01
 cg2d: Sum(rhs),rhsMax =  -2.86633940136494E-04  1.49833464411964E-01
 cg2d: Sum(rhs),rhsMax =  -2.87019606622521E-04  1.49834054828560E-01
 cg2d: Sum(rhs),rhsMax =  -2.87404646663900E-04  1.49834632107744E-01
 cg2d: Sum(rhs),rhsMax =  -2.87789059796103E-04  1.49835196239989E-01
 cg2d: Sum(rhs),rhsMax =  -2.88172845714495E-04  1.49835747215796E-01
 cg2d: Sum(rhs),rhsMax =  -2.88556003850646E-04  1.49836285025687E-01
 cg2d: Sum(rhs),rhsMax =  -2.88938533794227E-04  1.49836809660212E-01
 cg2d: Sum(rhs),rhsMax =  -2.89320435114154E-04  1.49837321109944E-01
 cg2d: Sum(rhs),rhsMax =  -2.89701707503078E-04  1.49837819365484E-01
 cg2d: Sum(rhs),rhsMax =  -2.90082350392224E-04  1.49838304417455E-01
(PID.TID 0000.0001)      cg2d_init_res =   1.24937012288185E-03
(PID.TID 0000.0001)      cg2d_iters(min,last) =      -1      80
(PID.TID 0000.0001)      cg2d_last_res =   8.60429185852609E-08
(PID.TID 0000.0001) // =======================================================
(PID.TID 0000.0001) // Begin MONITOR dynamic field statistics
(PID.TID 0000.0001) // =======================================================
(PID.TID 0000.0001) %MON time_tsnumber                =                  5472
(PID.TID 0000.0001) %MON time_secondsf                =   6.5664000000000E+06
(PID.TID 0000.0001) %MON dynstat_eta_max              =   5.2413558631457E-02
(PID.TID 0000.0001) %MON dynstat_eta_min              =  -2.2227632222494E-02
(PID.TID 0000.0001) %MON dynstat_eta_mean             =   2.1761262538967E-07
(PID.TID 0000.0001) %MON dynstat_eta_sd               =   1.9871214255643E-02
(PID.TID 0000.0001) %MON dynstat_eta_del2             =   1.8653362413638E-05
(PID.TID 0000.0001) %MON dynstat_uvel_max             =   2.9523930023991E-02
(PID.TID 0000.0001) %MON dynstat_uvel_min             =  -1.6604194662306E-02
(PID.TID 0000.0001) %MON dynstat_uvel_mean            =  -1.4322751830993E-07
(PID.TID 0000.0001) %MON dynstat_uvel_sd              =   7.2944934093262E-03
(PID.TID 0000.0001) %MON dynstat_uvel_del2            =   8.3051251768104E-06
(PID.TID 0000.0001) %MON dynstat_vvel_max             =   8.9681384952015E-02
(PID.TID 0000.0001) %MON dynstat_vvel_min             =  -3.3513423712677E-02
(PID.TID 0000.0001) %MON dynstat_vvel_mean            =   2.9593332558772E-10
(PID.TID 0000.0001) %MON dynstat_vvel_sd              =   1.5933786638479E-02
(PID.TID 0000.0001) %MON dynstat_vvel_del2            =   7.5110659972868E-05
(PID.TID 0000.0001) %MON dynstat_wvel_max             =   1.3361283359409E-08
(PID.TID 0000.0001) %MON dynstat_wvel_min             =  -1.9539566153544E-08
(PID.TID 0000.0001) %MON dynstat_wvel_mean            =  -1.2614532352018E-21
(PID.TID 0000.0001) %MON dynstat_wvel_sd              =   7.1395818421040E-09
(PID.TID 0000.0001) %MON dynstat_wvel_del2            =   3.2916665175337E-12
(PID.TID 0000.0001) %MON dynstat_theta_max            =   2.0000000000000E+01
(PID.TID 0000.0001) %MON dynstat_theta_min            =   2.0000000000000E+01
(PID.TID 0000.0001) %MON dynstat_theta_mean           =   2.0000000000000E+01
(PID.TID 0000.0001) %MON dynstat_theta_sd             =   0.0000000000000E+00
(PID.TID 0000.0001) %MON dynstat_theta_del2           =   0.0000000000000E+00
(PID.TID 0000.0001) %MON dynstat_salt_max             =   3.0000000000000E+01
(PID.TID 0000.0001) %MON dynstat_salt_min             =   3.0000000000000E+01
(PID.TID 0000.0001) %MON dynstat_salt_mean            =   3.0000000000000E+01
(PID.TID 0000.0001) %MON dynstat_salt_sd              =   0.0000000000000E+00
(PID.TID 0000.0001) %MON dynstat_salt_del2            =   0.0000000000000E+00
(PID.TID 0000.0001) %MON trAdv_CFL_u_max              =   1.7713165530626E-03
(PID.TID 0000.0001) %MON trAdv_CFL_v_max              =   5.3808560087332E-03
(PID.TID 0000.0001) %MON trAdv_CFL_w_max              =   3.2101158826612E-09
(PID.TID 0000.0001) %MON advcfl_uvel_max              =   1.7714358014394E-03
(PID.TID 0000.0001) %MON advcfl_vvel_max              =   5.3808830971209E-03
(PID.TID 0000.0001) %MON advcfl_wvel_max              =   9.3789917537011E-09
(PID.TID 0000.0001) %MON advcfl_W_hf_max              =   0.0000000000000E+00
(PID.TID 0000.0001) %MON pe_b_mean                    =   3.8736271807623E-07
(PID.TID 0000.0001) %MON ke_max                       =   4.0198831908588E-03
(PID.TID 0000.0001) %MON ke_mean                      =   1.5098846879023E-04
(PID.TID 0000.0001) %MON ke_vol                       =   7.2000000000000E+15
(PID.TID 0000.0001) %MON vort_r_min                   =  -1.5649890980099E-06
(PID.TID 0000.0001) %MON vort_r_max                   =   2.4612556844699E-06
(PID.TID 0000.0001) %MON vort_a_mean                  =   1.0600000000000E-04
(PID.TID 0000.0001) %MON vort_a_sd                    =   3.5381068611610E-06
(PID.TID 0000.0001) %MON vort_p_mean                  =   1.1130000000000E-04
(PID.TID 0000.0001) %MON vort_p_sd                    =   4.1152178312288E-05
(PID.TID 0000.0001) %MON surfExpan_theta_mean         =  -2.5244793909628E-20
(PID.TID 0000.0001) %MON surfExpan_salt_mean          =  -3.7869322492649E-20
(PID.TID 0000.0001) // =======================================================
(PID.TID 0000.0001) // End MONITOR dynamic field statistics
(PID.TID 0000.0001) // =======================================================
 cg2d: Sum(rhs),rhsMax =  -2.90462363410833E-04  1.49838776256506E-01
 cg2d: Sum(rhs),rhsMax =  -2.90841746053747E-04  1.49839234873311E-01
 cg2d: Sum(rhs),rhsMax =  -2.91220498181040E-04  1.49839680258570E-01
 cg2d: Sum(rhs),rhsMax =  -2.91598619132616E-04  1.49840112403007E-01
 cg2d: Sum(rhs),rhsMax =  -2.91976108739803E-04  1.49840531297373E-01
 cg2d: Sum(rhs),rhsMax =  -2.92352966424500E-04  1.49840936932443E-01
 cg2d: Sum(rhs),rhsMax =  -2.92729191920775E-04  1.49841329299018E-01
 cg2d: Sum(rhs),rhsMax =  -2.93104784821296E-04  1.49841708387924E-01
 cg2d: Sum(rhs),rhsMax =  -2.93479744746985E-04  1.49842074190010E-01
 cg2d: Sum(rhs),rhsMax =  -2.93854071427548E-04  1.49842426696155E-01
 cg2d: Sum(rhs),rhsMax =  -2.94227764353474E-04  1.49842765897261E-01
 cg2d: Sum(rhs),rhsMax =  -2.94600823295121E-04  1.49843091784256E-01
 cg2d: Sum(rhs),rhsMax =  -2.94973247950495E-04  1.49843404348091E-01
 cg2d: Sum(rhs),rhsMax =  -2.95345037906662E-04  1.49843703579748E-01
 cg2d: Sum(rhs),rhsMax =  -2.95716192800696E-04  1.49843989470230E-01
 cg2d: Sum(rhs),rhsMax =  -2.96086712295685E-04  1.49844262010566E-01
 cg2d: Sum(rhs),rhsMax =  -2.96456596206826E-04  1.49844521191814E-01
 cg2d: Sum(rhs),rhsMax =  -2.96825844119385E-04  1.49844767005054E-01
 cg2d: Sum(rhs),rhsMax =  -2.97194455592518E-04  1.49844999441394E-01
 cg2d: Sum(rhs),rhsMax =  -2.97562430483424E-04  1.49845218491966E-01
 cg2d: Sum(rhs),rhsMax =  -2.97929768509730E-04  1.49845424147930E-01
 cg2d: Sum(rhs),rhsMax =  -2.98296469297177E-04  1.49845616400471E-01
 cg2d: Sum(rhs),rhsMax =  -2.98662532586814E-04  1.49845795240798E-01
 cg2d: Sum(rhs),rhsMax =  -2.99027958221342E-04  1.49845960660149E-01
 cg2d: Sum(rhs),rhsMax =  -2.99392745659908E-04  1.49846112649787E-01
 cg2d: Sum(rhs),rhsMax =  -2.99756894739611E-04  1.49846251201000E-01
 cg2d: Sum(rhs),rhsMax =  -3.00120405257299E-04  1.49846376305102E-01
 cg2d: Sum(rhs),rhsMax =  -3.00483276902572E-04  1.49846487953433E-01
 cg2d: Sum(rhs),rhsMax =  -3.00845509403654E-04  1.49846586137361E-01
 cg2d: Sum(rhs),rhsMax =  -3.01207102492451E-04  1.49846670848278E-01
 cg2d: Sum(rhs),rhsMax =  -3.01568055986943E-04  1.49846742077606E-01
 cg2d: Sum(rhs),rhsMax =  -3.01928369552542E-04  1.49846799816787E-01
 cg2d: Sum(rhs),rhsMax =  -3.02288043058051E-04  1.49846844057293E-01
 cg2d: Sum(rhs),rhsMax =  -3.02647076163653E-04  1.49846874790624E-01
 cg2d: Sum(rhs),rhsMax =  -3.03005468794517E-04  1.49846892008301E-01
 cg2d: Sum(rhs),rhsMax =  -3.03363220620546E-04  1.49846895701876E-01
 cg2d: Sum(rhs),rhsMax =  -3.03720331379397E-04  1.49846885862928E-01
 cg2d: Sum(rhs),rhsMax =  -3.04076800928996E-04  1.49846862483057E-01
 cg2d: Sum(rhs),rhsMax =  -3.04432629103409E-04  1.49846825553894E-01
 cg2d: Sum(rhs),rhsMax =  -3.04787815585150E-04  1.49846775067096E-01
 cg2d: Sum(rhs),rhsMax =  -3.05142360216642E-04  1.49846711014344E-01
 cg2d: Sum(rhs),rhsMax =  -3.05496262838957E-04  1.49846633387349E-01
 cg2d: Sum(rhs),rhsMax =  -3.05849523342183E-04  1.49846542177847E-01
 cg2d: Sum(rhs),rhsMax =  -3.06202141361575E-04  1.49846437377599E-01
 cg2d: Sum(rhs),rhsMax =  -3.06554116858262E-04  1.49846318978397E-01
 cg2d: Sum(rhs),rhsMax =  -3.06905449623471E-04  1.49846186972052E-01
 cg2d: Sum(rhs),rhsMax =  -3.07256139436811E-04  1.49846041350411E-01
 cg2d: Sum(rhs),rhsMax =  -3.07606186118289E-04  1.49845882105343E-01
 cg2d: Sum(rhs),rhsMax =  -3.07955589650944E-04  1.49845709228741E-01
 cg2d: Sum(rhs),rhsMax =  -3.08304349751651E-04  1.49845522712531E-01
 cg2d: Sum(rhs),rhsMax =  -3.08652466471240E-04  1.49845322548662E-01
 cg2d: Sum(rhs),rhsMax =  -3.08999939409967E-04  1.49845108729111E-01
 cg2d: Sum(rhs),rhsMax =  -3.09346768546226E-04  1.49844881245880E-01
 cg2d: Sum(rhs),rhsMax =  -3.09692953766200E-04  1.49844640091002E-01
 cg2d: Sum(rhs),rhsMax =  -3.10038494827277E-04  1.49844385256533E-01
 cg2d: Sum(rhs),rhsMax =  -3.10383391719114E-04  1.49844116734558E-01
 cg2d: Sum(rhs),rhsMax =  -3.10727644357419E-04  1.49843834517189E-01
 cg2d: Sum(rhs),rhsMax =  -3.11071252542992E-04  1.49843538596564E-01
 cg2d: Sum(rhs),rhsMax =  -3.11414216103791E-04  1.49843228964850E-01
 cg2d: Sum(rhs),rhsMax =  -3.11756535048772E-04  1.49842905614239E-01
 cg2d: Sum(rhs),rhsMax =  -3.12098209261035E-04  1.49842568536951E-01
 cg2d: Sum(rhs),rhsMax =  -3.12439238638258E-04  1.49842217725234E-01
 cg2d: Sum(rhs),rhsMax =  -3.12779623000585E-04  1.49841853171363E-01
 cg2d: Sum(rhs),rhsMax =  -3.13119362384600E-04  1.49841474867640E-01
 cg2d: Sum(rhs),rhsMax =  -3.13458456740456E-04  1.49841082806393E-01
 cg2d: Sum(rhs),rhsMax =  -3.13796905852023E-04  1.49840676979980E-01
 cg2d: Sum(rhs),rhsMax =  -3.14134709686427E-04  1.49840257380784E-01
 cg2d: Sum(rhs),rhsMax =  -3.14471868288130E-04  1.49839824001218E-01
 cg2d: Sum(rhs),rhsMax =  -3.14808381541680E-04  1.49839376833719E-01
 cg2d: Sum(rhs),rhsMax =  -3.15144249237998E-04  1.49838915870753E-01
 cg2d: Sum(rhs),rhsMax =  -3.15479471584947E-04  1.49838441104816E-01
 cg2d: Sum(rhs),rhsMax =  -3.15814048332433E-04  1.49837952528428E-01
(PID.TID 0000.0001)      cg2d_init_res =   1.24355120167497E-03
(PID.TID 0000.0001)      cg2d_iters(min,last) =      -1      80
(PID.TID 0000.0001)      cg2d_last_res =   8.33817858177181E-08
(PID.TID 0000.0001) // =======================================================
(PID.TID 0000.0001) // Begin MONITOR dynamic field statistics
(PID.TID 0000.0001) // =======================================================
(PID.TID 0000.0001) %MON time_tsnumber                =                  5544
(PID.TID 0000.0001) %MON time_secondsf                =   6.6528000000000E+06
(PID.TID 0000.0001) %MON dynstat_eta_max              =   5.2589621249614E-02
(PID.TID 0000.0001) %MON dynstat_eta_min              =  -2.1912758931303E-02
(PID.TID 0000.0001) %MON dynstat_eta_mean             =   2.3685403557605E-07
(PID.TID 0000.0001) %MON dynstat_eta_sd               =   1.9889693666079E-02
(PID.TID 0000.0001) %MON dynstat_eta_del2             =   1.8675763970823E-05
(PID.TID 0000.0001) %MON dynstat_uvel_max             =   2.9661262054723E-02
(PID.TID 0000.0001) %MON dynstat_uvel_min             =  -1.6672579603976E-02
(PID.TID 0000.0001) %MON dynstat_uvel_mean            =  -1.1687186534730E-07
(PID.TID 0000.0001) %MON dynstat_uvel_sd              =   7.2525084772328E-03
(PID.TID 0000.0001) %MON dynstat_uvel_del2            =   8.2984566648958E-06
(PID.TID 0000.0001) %MON dynstat_vvel_max             =   8.9694491253602E-02
(PID.TID 0000.0001) %MON dynstat_vvel_min             =  -3.3600517883874E-02
(PID.TID 0000.0001) %MON dynstat_vvel_mean            =   1.4074091761657E-09
(PID.TID 0000.0001) %MON dynstat_vvel_sd              =   1.5937939164815E-02
(PID.TID 0000.0001) %MON dynstat_vvel_del2            =   7.5310467895325E-05
(PID.TID 0000.0001) %MON dynstat_wvel_max             =   1.2417662659718E-08
(PID.TID 0000.0001) %MON dynstat_wvel_min             =  -1.9883436072851E-08
(PID.TID 0000.0001) %MON dynstat_wvel_mean            =   6.0498172792399E-21
(PID.TID 0000.0001) %MON dynstat_wvel_sd              =   7.1041797315352E-09
(PID.TID 0000.0001) %MON dynstat_wvel_del2            =   3.2606431218572E-12
(PID.TID 0000.0001) %MON dynstat_theta_max            =   2.0000000000000E+01
(PID.TID 0000.0001) %MON dynstat_theta_min            =   2.0000000000000E+01
(PID.TID 0000.0001) %MON dynstat_theta_mean           =   2.0000000000000E+01
(PID.TID 0000.0001) %MON dynstat_theta_sd             =   0.0000000000000E+00
(PID.TID 0000.0001) %MON dynstat_theta_del2           =   0.0000000000000E+00
(PID.TID 0000.0001) %MON dynstat_salt_max             =   3.0000000000000E+01
(PID.TID 0000.0001) %MON dynstat_salt_min             =   3.0000000000000E+01
(PID.TID 0000.0001) %MON dynstat_salt_mean            =   3.0000000000000E+01
(PID.TID 0000.0001) %MON dynstat_salt_sd              =   0.0000000000000E+00
(PID.TID 0000.0001) %MON dynstat_salt_del2            =   0.0000000000000E+00
(PID.TID 0000.0001) %MON trAdv_CFL_u_max              =   1.7795661030162E-03
(PID.TID 0000.0001) %MON trAdv_CFL_v_max              =   5.3816745749200E-03
(PID.TID 0000.0001) %MON trAdv_CFL_w_max              =   2.9833538461011E-09
(PID.TID 0000.0001) %MON advcfl_uvel_max              =   1.7796757232834E-03
(PID.TID 0000.0001) %MON advcfl_vvel_max              =   5.3816694752161E-03
(PID.TID 0000.0001) %MON advcfl_wvel_max              =   9.5440493149683E-09
(PID.TID 0000.0001) %MON advcfl_W_hf_max              =   0.0000000000000E+00
(PID.TID 0000.0001) %MON pe_b_mean                    =   3.8808351581703E-07
(PID.TID 0000.0001) %MON ke_max                       =   4.0194550429217E-03
(PID.TID 0000.0001) %MON ke_mean                      =   1.5075325215661E-04
(PID.TID 0000.0001) %MON ke_vol                       =   7.2000000000000E+15
(PID.TID 0000.0001) %MON vort_r_min                   =  -1.5689652267141E-06
(PID.TID 0000.0001) %MON vort_r_max                   =   2.4605426299186E-06
(PID.TID 0000.0001) %MON vort_a_mean                  =   1.0600000000000E-04
(PID.TID 0000.0001) %MON vort_a_sd                    =   3.5381583782471E-06
(PID.TID 0000.0001) %MON vort_p_mean                  =   1.1130000000000E-04
(PID.TID 0000.0001) %MON vort_p_sd                    =   4.1152085391511E-05
(PID.TID 0000.0001) %MON surfExpan_theta_mean         =   1.2099737508227E-19
(PID.TID 0000.0001) %MON surfExpan_salt_mean          =   1.8149550997906E-19
(PID.TID 0000.0001) // =======================================================
(PID.TID 0000.0001) // End MONITOR dynamic field statistics
(PID.TID 0000.0001) // =======================================================
 cg2d: Sum(rhs),rhsMax =  -3.16147979541892E-04  1.49837450134137E-01
 cg2d: Sum(rhs),rhsMax =  -3.16556401163313E-04  1.49836934309951E-01
 cg2d: Sum(rhs),rhsMax =  -3.16964063366280E-04  1.49836404252672E-01
 cg2d: Sum(rhs),rhsMax =  -3.17371003382926E-04  1.49835860351628E-01
 cg2d: Sum(rhs),rhsMax =  -3.17777176006590E-04  1.49835302611443E-01
 cg2d: Sum(rhs),rhsMax =  -3.18182570809274E-04  1.49834731015869E-01
 cg2d: Sum(rhs),rhsMax =  -3.18587187024770E-04  1.49834145556434E-01
 cg2d: Sum(rhs),rhsMax =  -3.18991030589564E-04  1.49833546225966E-01
 cg2d: Sum(rhs),rhsMax =  -3.19394107805029E-04  1.49832933018115E-01
 cg2d: Sum(rhs),rhsMax =  -3.19796421969050E-04  1.49832305926438E-01
 cg2d: Sum(rhs),rhsMax =  -3.20197973684534E-04  1.49831664944204E-01
 cg2d: Sum(rhs),rhsMax =  -3.20598761753887E-04  1.49831010064360E-01
 cg2d: Sum(rhs),rhsMax =  -3.20998784997908E-04  1.49830341279654E-01
 cg2d: Sum(rhs),rhsMax =  -3.21398042830520E-04  1.49829658582810E-01
 cg2d: Sum(rhs),rhsMax =  -3.21796535338357E-04  1.49828961966639E-01
 cg2d: Sum(rhs),rhsMax =  -3.22194263110049E-04  1.49828251424065E-01
 cg2d: Sum(rhs),rhsMax =  -3.22591226776623E-04  1.49827526948094E-01
 cg2d: Sum(rhs),rhsMax =  -3.22987426776753E-04  1.49826788531776E-01
 cg2d: Sum(rhs),rhsMax =  -3.23382863574131E-04  1.49826036168178E-01
 cg2d: Sum(rhs),rhsMax =  -3.23777537233364E-04  1.49825269850389E-01
 cg2d: Sum(rhs),rhsMax =  -3.24171447982879E-04  1.49824489571513E-01
 cg2d: Sum(rhs),rhsMax =  -3.24564596058839E-04  1.49823695324687E-01
 cg2d: Sum(rhs),rhsMax =  -3.24956981819488E-04  1.49822887103079E-01
 cg2d: Sum(rhs),rhsMax =  -3.25348605421024E-04  1.49822064899883E-01
 cg2d: Sum(rhs),rhsMax =  -3.25739467276573E-04  1.49821228708324E-01
 cg2d: Sum(rhs),rhsMax =  -3.26129567611209E-04  1.49820378521650E-01
 cg2d: Sum(rhs),rhsMax =  -3.26518906784372E-04  1.49819514333132E-01
 cg2d: Sum(rhs),rhsMax =  -3.26907485201164E-04  1.49818636136074E-01
 cg2d: Sum(rhs),rhsMax =  -3.27295303011006E-04  1.49817743923803E-01
 cg2d: Sum(rhs),rhsMax =  -3.27682360595902E-04  1.49816837689679E-01
 cg2d: Sum(rhs),rhsMax =  -3.28068658301153E-04  1.49815917427092E-01
 cg2d: Sum(rhs),rhsMax =  -3.28454196412325E-04  1.49814983129463E-01
 cg2d: Sum(rhs),rhsMax =  -3.28838975277187E-04  1.49814034790240E-01
 cg2d: Sum(rhs),rhsMax =  -3.29222995264295E-04  1.49813072402901E-01
 cg2d: Sum(rhs),rhsMax =  -3.29606256607507E-04  1.49812095960950E-01
 cg2d: Sum(rhs),rhsMax =  -3.29988759747123E-04  1.49811105457922E-01
 cg2d: Sum(rhs),rhsMax =  -3.30370504924004E-04  1.49810100887377E-01
 cg2d: Sum(rhs),rhsMax =  -3.30751492631381E-04  1.49809082242905E-01
 cg2d: Sum(rhs),rhsMax =  -3.31131723148501E-04  1.49808049518124E-01
 cg2d: Sum(rhs),rhsMax =  -3.31511196749047E-04  1.49807002706681E-01
 cg2d: Sum(rhs),rhsMax =  -3.31889913877718E-04  1.49805941802252E-01
 cg2d: Sum(rhs),rhsMax =  -3.32267874978988E-04  1.49804866798543E-01
 cg2d: Sum(rhs),rhsMax =  -3.32645080286224E-04  1.49803777689288E-01
 cg2d: Sum(rhs),rhsMax =  -3.33021530200122E-04  1.49802674468249E-01
 cg2d: Sum(rhs),rhsMax =  -3.33397225131506E-04  1.49801557129219E-01
 cg2d: Sum(rhs),rhsMax =  -3.33772165430159E-04  1.49800425666019E-01
 cg2d: Sum(rhs),rhsMax =  -3.34146351417965E-04  1.49799280072497E-01
 cg2d: Sum(rhs),rhsMax =  -3.34519783628402E-04  1.49798120342533E-01
 cg2d: Sum(rhs),rhsMax =  -3.34892462329384E-04  1.49796946470034E-01
 cg2d: Sum(rhs),rhsMax =  -3.35264388076855E-04  1.49795758448935E-01
 cg2d: Sum(rhs),rhsMax =  -3.35635561157847E-04  1.49794556273204E-01
 cg2d: Sum(rhs),rhsMax =  -3.36005981946452E-04  1.49793339936833E-01
 cg2d: Sum(rhs),rhsMax =  -3.36375650842126E-04  1.49792109433847E-01
 cg2d: Sum(rhs),rhsMax =  -3.36744568335829E-04  1.49790864758298E-01
 cg2d: Sum(rhs),rhsMax =  -3.37112734921844E-04  1.49789605904268E-01
 cg2d: Sum(rhs),rhsMax =  -3.37480150765788E-04  1.49788332865869E-01
 cg2d: Sum(rhs),rhsMax =  -3.37846816419523E-04  1.49787045637240E-01
 cg2d: Sum(rhs),rhsMax =  -3.38212732355561E-04  1.49785744212551E-01
 cg2d: Sum(rhs),rhsMax =  -3.38577898984436E-04  1.49784428586001E-01
 cg2d: Sum(rhs),rhsMax =  -3.38942316769806E-04  1.49783098751818E-01
 cg2d: Sum(rhs),rhsMax =  -3.39305986087667E-04  1.49781754704259E-01
 cg2d: Sum(rhs),rhsMax =  -3.39668907374168E-04  1.49780396437610E-01
 cg2d: Sum(rhs),rhsMax =  -3.40031081152347E-04  1.49779023946188E-01
 cg2d: Sum(rhs),rhsMax =  -3.40392507908337E-04  1.49777637224338E-01
 cg2d: Sum(rhs),rhsMax =  -3.40753187964457E-04  1.49776236266434E-01
 cg2d: Sum(rhs),rhsMax =  -3.41113121727720E-04  1.49774821066882E-01
 cg2d: Sum(rhs),rhsMax =  -3.41472309834704E-04  1.49773391620113E-01
 cg2d: Sum(rhs),rhsMax =  -3.41830752599883E-04  1.49771947920593E-01
 cg2d: Sum(rhs),rhsMax =  -3.42188450631263E-04  1.49770489962812E-01
 cg2d: Sum(rhs),rhsMax =  -3.42545404408465E-04  1.49769017741293E-01
 cg2d: Sum(rhs),rhsMax =  -3.42901614317461E-04  1.49767531250590E-01
 cg2d: Sum(rhs),rhsMax =  -3.43257080881477E-04  1.49766030485281E-01
(PID.TID 0000.0001)      cg2d_init_res =   1.23900782436726E-03
(PID.TID 0000.0001)      cg2d_iters(min,last) =      -1      79
(PID.TID 0000.0001)      cg2d_last_res =   9.71300750872175E-08
(PID.TID 0000.0001) // =======================================================
(PID.TID 0000.0001) // Begin MONITOR dynamic field statistics
(PID.TID 0000.0001) // =======================================================
(PID.TID 0000.0001) %MON time_tsnumber                =                  5616
(PID.TID 0000.0001) %MON time_secondsf                =   6.7392000000000E+06
(PID.TID 0000.0001) %MON dynstat_eta_max              =   5.2782556741609E-02
(PID.TID 0000.0001) %MON dynstat_eta_min              =  -2.1578164736400E-02
(PID.TID 0000.0001) %MON dynstat_eta_mean             =   2.5730427701996E-07
(PID.TID 0000.0001) %MON dynstat_eta_sd               =   1.9876580990280E-02
(PID.TID 0000.0001) %MON dynstat_eta_del2             =   1.8695439866942E-05
(PID.TID 0000.0001) %MON dynstat_uvel_max             =   2.9786507230507E-02
(PID.TID 0000.0001) %MON dynstat_uvel_min             =  -1.6709170123155E-02
(PID.TID 0000.0001) %MON dynstat_uvel_mean            =  -8.8767705345020E-08
(PID.TID 0000.0001) %MON dynstat_uvel_sd              =   7.2025593899964E-03
(PID.TID 0000.0001) %MON dynstat_uvel_del2            =   8.2869245443407E-06
(PID.TID 0000.0001) %MON dynstat_vvel_max             =   8.9667932307321E-02
(PID.TID 0000.0001) %MON dynstat_vvel_min             =  -3.3694893455119E-02
(PID.TID 0000.0001) %MON dynstat_vvel_mean            =   2.4220881034915E-09
(PID.TID 0000.0001) %MON dynstat_vvel_sd              =   1.5938033012165E-02
(PID.TID 0000.0001) %MON dynstat_vvel_del2            =   7.5492736718140E-05
(PID.TID 0000.0001) %MON dynstat_wvel_max             =   1.1423676186823E-08
(PID.TID 0000.0001) %MON dynstat_wvel_min             =  -2.0148449994740E-08
(PID.TID 0000.0001) %MON dynstat_wvel_mean            =  -2.6898771920969E-21
(PID.TID 0000.0001) %MON dynstat_wvel_sd              =   7.0707908849524E-09
(PID.TID 0000.0001) %MON dynstat_wvel_del2            =   3.2303186102544E-12
(PID.TID 0000.0001) %MON dynstat_theta_max            =   2.0000000000000E+01
(PID.TID 0000.0001) %MON dynstat_theta_min            =   2.0000000000000E+01
(PID.TID 0000.0001) %MON dynstat_theta_mean           =   2.0000000000000E+01
(PID.TID 0000.0001) %MON dynstat_theta_sd             =   0.0000000000000E+00
(PID.TID 0000.0001) %MON dynstat_theta_del2           =   0.0000000000000E+00
(PID.TID 0000.0001) %MON dynstat_salt_max             =   3.0000000000000E+01
(PID.TID 0000.0001) %MON dynstat_salt_min             =   3.0000000000000E+01
(PID.TID 0000.0001) %MON dynstat_salt_mean            =   3.0000000000000E+01
(PID.TID 0000.0001) %MON dynstat_salt_sd              =   0.0000000000000E+00
(PID.TID 0000.0001) %MON dynstat_salt_del2            =   0.0000000000000E+00
(PID.TID 0000.0001) %MON trAdv_CFL_u_max              =   1.7870913007817E-03
(PID.TID 0000.0001) %MON trAdv_CFL_v_max              =   5.3801148826023E-03
(PID.TID 0000.0001) %MON trAdv_CFL_w_max              =   2.7451617769897E-09
(PID.TID 0000.0001) %MON advcfl_uvel_max              =   1.7871904338304E-03
(PID.TID 0000.0001) %MON advcfl_vvel_max              =   5.3800759384392E-03
(PID.TID 0000.0001) %MON advcfl_wvel_max              =   9.6712559974752E-09
(PID.TID 0000.0001) %MON advcfl_W_hf_max              =   0.0000000000000E+00
(PID.TID 0000.0001) %MON pe_b_mean                    =   3.8757198096271E-07
(PID.TID 0000.0001) %MON ke_max                       =   4.0155310482490E-03
(PID.TID 0000.0001) %MON ke_mean                      =   1.5039973105166E-04
(PID.TID 0000.0001) %MON ke_vol                       =   7.2000000000000E+15
(PID.TID 0000.0001) %MON vort_r_min                   =  -1.5727570599285E-06
(PID.TID 0000.0001) %MON vort_r_max                   =   2.4584957426822E-06
(PID.TID 0000.0001) %MON vort_a_mean                  =   1.0600000000000E-04
(PID.TID 0000.0001) %MON vort_a_sd                    =   3.5381998281919E-06
(PID.TID 0000.0001) %MON vort_p_mean                  =   1.1130000000000E-04
(PID.TID 0000.0001) %MON vort_p_sd                    =   4.1151985977013E-05
(PID.TID 0000.0001) %MON surfExpan_theta_mean         =  -5.3787122903752E-20
(PID.TID 0000.0001) %MON surfExpan_salt_mean          =  -8.0677829848873E-20
(PID.TID 0000.0001) // =======================================================
(PID.TID 0000.0001) // End MONITOR dynamic field statistics
(PID.TID 0000.0001) // =======================================================
 cg2d: Sum(rhs),rhsMax =  -3.43611804549560E-04  1.49764515439978E-01
 cg2d: Sum(rhs),rhsMax =  -3.43965785761111E-04  1.49762986109322E-01
 cg2d: Sum(rhs),rhsMax =  -3.44319025088293E-04  1.49761442487984E-01
 cg2d: Sum(rhs),rhsMax =  -3.44671523031948E-04  1.49759884570662E-01
 cg2d: Sum(rhs),rhsMax =  -3.45023280067362E-04  1.49758312352087E-01
 cg2d: Sum(rhs),rhsMax =  -3.45374296837957E-04  1.49756725827017E-01
 cg2d: Sum(rhs),rhsMax =  -3.45724573542381E-04  1.49755124990243E-01
 cg2d: Sum(rhs),rhsMax =  -3.46074110995064E-04  1.49753509836583E-01
 cg2d: Sum(rhs),rhsMax =  -3.46422909483106E-04  1.49751880360884E-01
 cg2d: Sum(rhs),rhsMax =  -3.46770969824249E-04  1.49750236558028E-01
 cg2d: Sum(rhs),rhsMax =  -3.47118292225859E-04  1.49748578422921E-01
 cg2d: Sum(rhs),rhsMax =  -3.47464877445044E-04  1.49746905950501E-01
 cg2d: Sum(rhs),rhsMax =  -3.47810725782115E-04  1.49745219135737E-01
 cg2d: Sum(rhs),rhsMax =  -3.48155837921361E-04  1.49743517973629E-01
 cg2d: Sum(rhs),rhsMax =  -3.48500214458818E-04  1.49741802459202E-01
 cg2d: Sum(rhs),rhsMax =  -3.48843855897575E-04  1.49740072587515E-01
 cg2d: Sum(rhs),rhsMax =  -3.49186762641265E-04  1.49738328353657E-01
 cg2d: Sum(rhs),rhsMax =  -3.49528935437145E-04  1.49736569752745E-01
 cg2d: Sum(rhs),rhsMax =  -3.49870374678478E-04  1.49734796779928E-01
 cg2d: Sum(rhs),rhsMax =  -3.50211081083616E-04  1.49733009430384E-01
 cg2d: Sum(rhs),rhsMax =  -3.50551055131126E-04  1.49731207699321E-01
 cg2d: Sum(rhs),rhsMax =  -3.50890297364430E-04  1.49729391581978E-01
 cg2d: Sum(rhs),rhsMax =  -3.51228808360008E-04  1.49727561073622E-01
 cg2d: Sum(rhs),rhsMax =  -3.51566588778785E-04  1.49725716169555E-01
 cg2d: Sum(rhs),rhsMax =  -3.51903639061488E-04  1.49723856865103E-01
 cg2d: Sum(rhs),rhsMax =  -3.52239959804004E-04  1.49721983155626E-01
 cg2d: Sum(rhs),rhsMax =  -3.52575551671829E-04  1.49720095036514E-01
 cg2d: Sum(rhs),rhsMax =  -3.52910415156402E-04  1.49718192503186E-01
 cg2d: Sum(rhs),rhsMax =  -3.53244550924188E-04  1.49716275551092E-01
 cg2d: Sum(rhs),rhsMax =  -3.53577959554493E-04  1.49714344175713E-01
 cg2d: Sum(rhs),rhsMax =  -3.53910641652831E-04  1.49712398372560E-01
 cg2d: Sum(rhs),rhsMax =  -3.54242597821223E-04  1.49710438137172E-01
 cg2d: Sum(rhs),rhsMax =  -3.54573828632996E-04  1.49708463465122E-01
 cg2d: Sum(rhs),rhsMax =  -3.54904334699689E-04  1.49706474352011E-01
 cg2d: Sum(rhs),rhsMax =  -3.55234116603305E-04  1.49704470793472E-01
 cg2d: Sum(rhs),rhsMax =  -3.55563175017356E-04  1.49702452785167E-01
 cg2d: Sum(rhs),rhsMax =  -3.55891510544501E-04  1.49700420322790E-01
 cg2d: Sum(rhs),rhsMax =  -3.56219123814339E-04  1.49698373402062E-01
 cg2d: Sum(rhs),rhsMax =  -3.56546015325822E-04  1.49696312018740E-01
 cg2d: Sum(rhs),rhsMax =  -3.56872185929560E-04  1.49694236168608E-01
 cg2d: Sum(rhs),rhsMax =  -3.57197636027678E-04  1.49692145847479E-01
 cg2d: Sum(rhs),rhsMax =  -3.57522366411438E-04  1.49690041051202E-01
 cg2d: Sum(rhs),rhsMax =  -3.57846377687436E-04  1.49687921775651E-01
 cg2d: Sum(rhs),rhsMax =  -3.58169670445269E-04  1.49685788016734E-01
 cg2d: Sum(rhs),rhsMax =  -3.58492245314557E-04  1.49683639770389E-01
 cg2d: Sum(rhs),rhsMax =  -3.58814102976382E-04  1.49681477032583E-01
 cg2d: Sum(rhs),rhsMax =  -3.59135244045457E-04  1.49679299799315E-01
 cg2d: Sum(rhs),rhsMax =  -3.59455669204863E-04  1.49677108066617E-01
 cg2d: Sum(rhs),rhsMax =  -3.59775379122422E-04  1.49674901830546E-01
 cg2d: Sum(rhs),rhsMax =  -3.60094374530299E-04  1.49672681087197E-01
 cg2d: Sum(rhs),rhsMax =  -3.60412655861601E-04  1.49670445832688E-01
 cg2d: Sum(rhs),rhsMax =  -3.60730224019687E-04  1.49668196063175E-01
 cg2d: Sum(rhs),rhsMax =  -3.61047079486778E-04  1.49665931774839E-01
 cg2d: Sum(rhs),rhsMax =  -3.61363222920737E-04  1.49663652963896E-01
 cg2d: Sum(rhs),rhsMax =  -3.61678655070650E-04  1.49661359626591E-01
 cg2d: Sum(rhs),rhsMax =  -3.61993376550775E-04  1.49659051759199E-01
 cg2d: Sum(rhs),rhsMax =  -3.62307388053531E-04  1.49656729358028E-01
 cg2d: Sum(rhs),rhsMax =  -3.62620690253630E-04  1.49654392419415E-01
 cg2d: Sum(rhs),rhsMax =  -3.62933283871271E-04  1.49652040939731E-01
 cg2d: Sum(rhs),rhsMax =  -3.63245169462980E-04  1.49649674915373E-01
 cg2d: Sum(rhs),rhsMax =  -3.63556347719673E-04  1.49647294342773E-01
 cg2d: Sum(rhs),rhsMax =  -3.63866819366288E-04  1.49644899218394E-01
 cg2d: Sum(rhs),rhsMax =  -3.64176585007655E-04  1.49642489538727E-01
 cg2d: Sum(rhs),rhsMax =  -3.64485645327091E-04  1.49640065300296E-01
 cg2d: Sum(rhs),rhsMax =  -3.64794001149399E-04  1.49637626499657E-01
 cg2d: Sum(rhs),rhsMax =  -3.65101652978448E-04  1.49635173133394E-01
 cg2d: Sum(rhs),rhsMax =  -3.65408601478088E-04  1.49632705198126E-01
 cg2d: Sum(rhs),rhsMax =  -3.65714847367473E-04  1.49630222690501E-01
 cg2d: Sum(rhs),rhsMax =  -3.66020391374656E-04  1.49627725607197E-01
 cg2d: Sum(rhs),rhsMax =  -3.66325234123646E-04  1.49625213944925E-01
 cg2d: Sum(rhs),rhsMax =  -3.66629376250747E-04  1.49622687700427E-01
 cg2d: Sum(rhs),rhsMax =  -3.66932818499384E-04  1.49620146870475E-01
(PID.TID 0000.0001)      cg2d_init_res =   1.23569564346165E-03
(PID.TID 0000.0001)      cg2d_iters(min,last) =      -1      79
(PID.TID 0000.0001)      cg2d_last_res =   9.33025464560940E-08
(PID.TID 0000.0001) // =======================================================
(PID.TID 0000.0001) // Begin MONITOR dynamic field statistics
(PID.TID 0000.0001) // =======================================================
(PID.TID 0000.0001) %MON time_tsnumber                =                  5688
(PID.TID 0000.0001) %MON time_secondsf                =   6.8256000000000E+06
(PID.TID 0000.0001) %MON dynstat_eta_max              =   5.2955592324303E-02
(PID.TID 0000.0001) %MON dynstat_eta_min              =  -2.1228625129557E-02
(PID.TID 0000.0001) %MON dynstat_eta_mean             =   2.7472450108916E-07
(PID.TID 0000.0001) %MON dynstat_eta_sd               =   1.9831662089002E-02
(PID.TID 0000.0001) %MON dynstat_eta_del2             =   1.8712286634418E-05
(PID.TID 0000.0001) %MON dynstat_uvel_max             =   2.9898701436732E-02
(PID.TID 0000.0001) %MON dynstat_uvel_min             =  -1.6734840481714E-02
(PID.TID 0000.0001) %MON dynstat_uvel_mean            =  -5.9317756687719E-08
(PID.TID 0000.0001) %MON dynstat_uvel_sd              =   7.1453203381874E-03
(PID.TID 0000.0001) %MON dynstat_uvel_del2            =   8.2711476890851E-06
(PID.TID 0000.0001) %MON dynstat_vvel_max             =   8.9599921537142E-02
(PID.TID 0000.0001) %MON dynstat_vvel_min             =  -3.3818662787425E-02
(PID.TID 0000.0001) %MON dynstat_vvel_mean            =   3.3259553819175E-09
(PID.TID 0000.0001) %MON dynstat_vvel_sd              =   1.5933613651442E-02
(PID.TID 0000.0001) %MON dynstat_vvel_del2            =   7.5655928426278E-05
(PID.TID 0000.0001) %MON dynstat_wvel_max             =   1.0468982033926E-08
(PID.TID 0000.0001) %MON dynstat_wvel_min             =  -2.0381624946604E-08
(PID.TID 0000.0001) %MON dynstat_wvel_mean            =  -1.8982523720802E-21
(PID.TID 0000.0001) %MON dynstat_wvel_sd              =   7.0401050330444E-09
(PID.TID 0000.0001) %MON dynstat_wvel_del2            =   3.2012701025816E-12
(PID.TID 0000.0001) %MON dynstat_theta_max            =   2.0000000000000E+01
(PID.TID 0000.0001) %MON dynstat_theta_min            =   2.0000000000000E+01
(PID.TID 0000.0001) %MON dynstat_theta_mean           =   2.0000000000000E+01
(PID.TID 0000.0001) %MON dynstat_theta_sd             =   0.0000000000000E+00
(PID.TID 0000.0001) %MON dynstat_theta_del2           =   0.0000000000000E+00
(PID.TID 0000.0001) %MON dynstat_salt_max             =   3.0000000000000E+01
(PID.TID 0000.0001) %MON dynstat_salt_min             =   3.0000000000000E+01
(PID.TID 0000.0001) %MON dynstat_salt_mean            =   3.0000000000000E+01
(PID.TID 0000.0001) %MON dynstat_salt_sd              =   0.0000000000000E+00
(PID.TID 0000.0001) %MON dynstat_salt_del2            =   0.0000000000000E+00
(PID.TID 0000.0001) %MON trAdv_CFL_u_max              =   1.7938341872788E-03
(PID.TID 0000.0001) %MON trAdv_CFL_v_max              =   5.3760694013333E-03
(PID.TID 0000.0001) %MON trAdv_CFL_w_max              =   2.5157309659990E-09
(PID.TID 0000.0001) %MON advcfl_uvel_max              =   1.7939220862039E-03
(PID.TID 0000.0001) %MON advcfl_vvel_max              =   5.3759952922285E-03
(PID.TID 0000.0001) %MON advcfl_wvel_max              =   9.7831799743697E-09
(PID.TID 0000.0001) %MON advcfl_W_hf_max              =   0.0000000000000E+00
(PID.TID 0000.0001) %MON pe_b_mean                    =   3.8582221968336E-07
(PID.TID 0000.0001) %MON ke_max                       =   4.0079592129825E-03
(PID.TID 0000.0001) %MON ke_mean                      =   1.4992669297669E-04
(PID.TID 0000.0001) %MON ke_vol                       =   7.2000000000000E+15
(PID.TID 0000.0001) %MON vort_r_min                   =  -1.5767615218136E-06
(PID.TID 0000.0001) %MON vort_r_max                   =   2.4550830679132E-06
(PID.TID 0000.0001) %MON vort_a_mean                  =   1.0600000000000E-04
(PID.TID 0000.0001) %MON vort_a_sd                    =   3.5382306536392E-06
(PID.TID 0000.0001) %MON vort_p_mean                  =   1.1130000000000E-04
(PID.TID 0000.0001) %MON vort_p_sd                    =   4.1151881901376E-05
(PID.TID 0000.0001) %MON surfExpan_theta_mean         =  -3.7985930450506E-20
(PID.TID 0000.0001) %MON surfExpan_salt_mean          =  -5.6980474659617E-20
(PID.TID 0000.0001) // =======================================================
(PID.TID 0000.0001) // End MONITOR dynamic field statistics
(PID.TID 0000.0001) // =======================================================
 cg2d: Sum(rhs),rhsMax =  -3.67235561608462E-04  1.49617591451874E-01
 cg2d: Sum(rhs),rhsMax =  -3.67537605951871E-04  1.49615021441459E-01
 cg2d: Sum(rhs),rhsMax =  -3.67838952412618E-04  1.49612436836095E-01
 cg2d: Sum(rhs),rhsMax =  -3.68139601628631E-04  1.49609837632683E-01
 cg2d: Sum(rhs),rhsMax =  -3.68439554217087E-04  1.49607223828149E-01
 cg2d: Sum(rhs),rhsMax =  -3.68738810825178E-04  1.49604595419454E-01
 cg2d: Sum(rhs),rhsMax =  -3.69037372110428E-04  1.49601952403591E-01
 cg2d: Sum(rhs),rhsMax =  -3.69335238715529E-04  1.49599294777582E-01
 cg2d: Sum(rhs),rhsMax =  -3.69632411354597E-04  1.49596622538480E-01
 cg2d: Sum(rhs),rhsMax =  -3.69928890613025E-04  1.49593935683374E-01
 cg2d: Sum(rhs),rhsMax =  -3.70224677077446E-04  1.49591234209378E-01
 cg2d: Sum(rhs),rhsMax =  -3.70519771334944E-04  1.49588518113643E-01
 cg2d: Sum(rhs),rhsMax =  -3.70814174056450E-04  1.49585787393348E-01
 cg2d: Sum(rhs),rhsMax =  -3.71107885943285E-04  1.49583042045704E-01
 cg2d: Sum(rhs),rhsMax =  -3.71400907419319E-04  1.49580282067954E-01
 cg2d: Sum(rhs),rhsMax =  -3.71693239223220E-04  1.49577507457374E-01
 cg2d: Sum(rhs),rhsMax =  -3.71984881950614E-04  1.49574718211267E-01
 cg2d: Sum(rhs),rhsMax =  -3.72275836057493E-04  1.49571914326973E-01
 cg2d: Sum(rhs),rhsMax =  -3.72566102173581E-04  1.49569095801860E-01
 cg2d: Sum(rhs),rhsMax =  -3.72855680863255E-04  1.49566262633327E-01
 cg2d: Sum(rhs),rhsMax =  -3.73144572581915E-04  1.49563414818810E-01
 cg2d: Sum(rhs),rhsMax =  -3.73432777976470E-04  1.49560552355769E-01
 cg2d: Sum(rhs),rhsMax =  -3.73720297477858E-04  1.49557675241700E-01
 cg2d: Sum(rhs),rhsMax =  -3.74007131718261E-04  1.49554783474132E-01
 cg2d: Sum(rhs),rhsMax =  -3.74293281039161E-04  1.49551877050621E-01
 cg2d: Sum(rhs),rhsMax =  -3.74578746007445E-04  1.49548955968759E-01
 cg2d: Sum(rhs),rhsMax =  -3.74863527086673E-04  1.49546020226167E-01
 cg2d: Sum(rhs),rhsMax =  -3.75147624566226E-04  1.49543069820498E-01
 cg2d: Sum(rhs),rhsMax =  -3.75431038963420E-04  1.49540104749440E-01
 cg2d: Sum(rhs),rhsMax =  -3.75713770763950E-04  1.49537125010707E-01
 cg2d: Sum(rhs),rhsMax =  -3.75995820245103E-04  1.49534130602048E-01
 cg2d: Sum(rhs),rhsMax =  -3.76277187755531E-04  1.49531121521246E-01
 cg2d: Sum(rhs),rhsMax =  -3.76557873578288E-04  1.49528097766111E-01
 cg2d: Sum(rhs),rhsMax =  -3.76837878205677E-04  1.49525059334488E-01
 cg2d: Sum(rhs),rhsMax =  -3.77117201743923E-04  1.49522006224253E-01
 cg2d: Sum(rhs),rhsMax =  -3.77395844529963E-04  1.49518938433313E-01
 cg2d: Sum(rhs),rhsMax =  -3.77673806728832E-04  1.49515855959608E-01
 cg2d: Sum(rhs),rhsMax =  -3.77951088588471E-04  1.49512758801110E-01
 cg2d: Sum(rhs),rhsMax =  -3.78227690253261E-04  1.49509646955821E-01
 cg2d: Sum(rhs),rhsMax =  -3.78503611778132E-04  1.49506520421777E-01
 cg2d: Sum(rhs),rhsMax =  -3.78778853274747E-04  1.49503379197045E-01
 cg2d: Sum(rhs),rhsMax =  -3.79053414830795E-04  1.49500223279724E-01
 cg2d: Sum(rhs),rhsMax =  -3.79327296452551E-04  1.49497052667945E-01
 cg2d: Sum(rhs),rhsMax =  -3.79600498018062E-04  1.49493867359871E-01
 cg2d: Sum(rhs),rhsMax =  -3.79873019535599E-04  1.49490667353696E-01
 cg2d: Sum(rhs),rhsMax =  -3.80144860814122E-04  1.49487452647648E-01
 cg2d: Sum(rhs),rhsMax =  -3.80416021717575E-04  1.49484223239984E-01
 cg2d: Sum(rhs),rhsMax =  -3.80686501877011E-04  1.49480979128997E-01
 cg2d: Sum(rhs),rhsMax =  -3.80956301119111E-04  1.49477720313009E-01
 cg2d: Sum(rhs),rhsMax =  -3.81225419025034E-04  1.49474446790375E-01
 cg2d: Sum(rhs),rhsMax =  -3.81493855146355E-04  1.49471158559481E-01
 cg2d: Sum(rhs),rhsMax =  -3.81761609127972E-04  1.49467855618747E-01
 cg2d: Sum(rhs),rhsMax =  -3.82028680299934E-04  1.49464537966623E-01
 cg2d: Sum(rhs),rhsMax =  -3.82295068097521E-04  1.49461205601593E-01
 cg2d: Sum(rhs),rhsMax =  -3.82560771668650E-04  1.49457858522173E-01
 cg2d: Sum(rhs),rhsMax =  -3.82825790395108E-04  1.49454496726910E-01
 cg2d: Sum(rhs),rhsMax =  -3.83090123259901E-04  1.49451120214382E-01
 cg2d: Sum(rhs),rhsMax =  -3.83353769360635E-04  1.49447728983202E-01
 cg2d: Sum(rhs),rhsMax =  -3.83616727600685E-04  1.49444323032014E-01
 cg2d: Sum(rhs),rhsMax =  -3.83878996736128E-04  1.49440902359494E-01
 cg2d: Sum(rhs),rhsMax =  -3.84140575588662E-04  1.49437466964349E-01
 cg2d: Sum(rhs),rhsMax =  -3.84401462746050E-04  1.49434016845322E-01
 cg2d: Sum(rhs),rhsMax =  -3.84661656593291E-04  1.49430552001183E-01
 cg2d: Sum(rhs),rhsMax =  -3.84921155488533E-04  1.49427072430739E-01
 cg2d: Sum(rhs),rhsMax =  -3.85179957686512E-04  1.49423578132825E-01
 cg2d: Sum(rhs),rhsMax =  -3.85438061248372E-04  1.49420069106312E-01
 cg2d: Sum(rhs),rhsMax =  -3.85695464203776E-04  1.49416545350102E-01
 cg2d: Sum(rhs),rhsMax =  -3.85952164122005E-04  1.49413006863128E-01
 cg2d: Sum(rhs),rhsMax =  -3.86208158624578E-04  1.49409453644357E-01
 cg2d: Sum(rhs),rhsMax =  -3.86463445287095E-04  1.49405885692787E-01
 cg2d: Sum(rhs),rhsMax =  -3.86718021144614E-04  1.49402303007449E-01
 cg2d: Sum(rhs),rhsMax =  -3.86971883419635E-04  1.49398705587407E-01
(PID.TID 0000.0001)      cg2d_init_res =   1.23354543421835E-03
(PID.TID 0000.0001)      cg2d_iters(min,last) =      -1      79
(PID.TID 0000.0001)      cg2d_last_res =   8.73808480181979E-08
(PID.TID 0000.0001) // =======================================================
(PID.TID 0000.0001) // Begin MONITOR dynamic field statistics
(PID.TID 0000.0001) // =======================================================
(PID.TID 0000.0001) %MON time_tsnumber                =                  5760
(PID.TID 0000.0001) %MON time_secondsf                =   6.9120000000000E+06
(PID.TID 0000.0001) %MON dynstat_eta_max              =   5.3099516542070E-02
(PID.TID 0000.0001) %MON dynstat_eta_min              =  -2.0869153452102E-02
(PID.TID 0000.0001) %MON dynstat_eta_mean             =   2.8924759672094E-07
(PID.TID 0000.0001) %MON dynstat_eta_sd               =   1.9755057793876E-02
(PID.TID 0000.0001) %MON dynstat_eta_del2             =   1.8726193073950E-05
(PID.TID 0000.0001) %MON dynstat_uvel_max             =   2.9997023299221E-02
(PID.TID 0000.0001) %MON dynstat_uvel_min             =  -1.6722915201000E-02
(PID.TID 0000.0001) %MON dynstat_uvel_mean            =  -2.8937953564578E-08
(PID.TID 0000.0001) %MON dynstat_uvel_sd              =   7.0815368824159E-03
(PID.TID 0000.0001) %MON dynstat_uvel_del2            =   8.2517165038255E-06
(PID.TID 0000.0001) %MON dynstat_vvel_max             =   8.9489094223442E-02
(PID.TID 0000.0001) %MON dynstat_vvel_min             =  -3.3979022022782E-02
(PID.TID 0000.0001) %MON dynstat_vvel_mean            =   4.1067231750250E-09
(PID.TID 0000.0001) %MON dynstat_vvel_sd              =   1.5924299949687E-02
(PID.TID 0000.0001) %MON dynstat_vvel_del2            =   7.5798647120516E-05
(PID.TID 0000.0001) %MON dynstat_wvel_max             =   9.4718658937200E-09
(PID.TID 0000.0001) %MON dynstat_wvel_min             =  -2.0544786808896E-08
(PID.TID 0000.0001) %MON dynstat_wvel_mean            =  -6.2361161528517E-21
(PID.TID 0000.0001) %MON dynstat_wvel_sd              =   7.0126535302565E-09
(PID.TID 0000.0001) %MON dynstat_wvel_del2            =   3.1732472695395E-12
(PID.TID 0000.0001) %MON dynstat_theta_max            =   2.0000000000000E+01
(PID.TID 0000.0001) %MON dynstat_theta_min            =   2.0000000000000E+01
(PID.TID 0000.0001) %MON dynstat_theta_mean           =   2.0000000000000E+01
(PID.TID 0000.0001) %MON dynstat_theta_sd             =   0.0000000000000E+00
(PID.TID 0000.0001) %MON dynstat_theta_del2           =   0.0000000000000E+00
(PID.TID 0000.0001) %MON dynstat_salt_max             =   3.0000000000000E+01
(PID.TID 0000.0001) %MON dynstat_salt_min             =   3.0000000000000E+01
(PID.TID 0000.0001) %MON dynstat_salt_mean            =   3.0000000000000E+01
(PID.TID 0000.0001) %MON dynstat_salt_sd              =   0.0000000000000E+00
(PID.TID 0000.0001) %MON dynstat_salt_del2            =   0.0000000000000E+00
(PID.TID 0000.0001) %MON trAdv_CFL_u_max              =   1.7997453550648E-03
(PID.TID 0000.0001) %MON trAdv_CFL_v_max              =   5.3694558820333E-03
(PID.TID 0000.0001) %MON trAdv_CFL_w_max              =   2.2767070551985E-09
(PID.TID 0000.0001) %MON advcfl_uvel_max              =   1.7998213979532E-03
(PID.TID 0000.0001) %MON advcfl_vvel_max              =   5.3693456534065E-03
(PID.TID 0000.0001) %MON advcfl_wvel_max              =   9.8614976682700E-09
(PID.TID 0000.0001) %MON advcfl_W_hf_max              =   0.0000000000000E+00
(PID.TID 0000.0001) %MON pe_b_mean                    =   3.8284732466109E-07
(PID.TID 0000.0001) %MON ke_max                       =   3.9991720281952E-03
(PID.TID 0000.0001) %MON ke_mean                      =   1.4933465097353E-04
(PID.TID 0000.0001) %MON ke_vol                       =   7.2000000000000E+15
(PID.TID 0000.0001) %MON vort_r_min                   =  -1.5801703996406E-06
(PID.TID 0000.0001) %MON vort_r_max                   =   2.4502884149191E-06
(PID.TID 0000.0001) %MON vort_a_mean                  =   1.0600000000000E-04
(PID.TID 0000.0001) %MON vort_a_sd                    =   3.5382503981430E-06
(PID.TID 0000.0001) %MON vort_p_mean                  =   1.1130000000000E-04
(PID.TID 0000.0001) %MON vort_p_sd                    =   4.1151775001459E-05
(PID.TID 0000.0001) %MON surfExpan_theta_mean         =  -1.2471321259650E-19
(PID.TID 0000.0001) %MON surfExpan_salt_mean          =  -1.8706856804348E-19
(PID.TID 0000.0001) // =======================================================
(PID.TID 0000.0001) // End MONITOR dynamic field statistics
(PID.TID 0000.0001) // =======================================================
 cg2d: Sum(rhs),rhsMax =  -3.87225028726072E-04  1.49395093431756E-01
 cg2d: Sum(rhs),rhsMax =  -3.87477453714965E-04  1.49391466539623E-01
 cg2d: Sum(rhs),rhsMax =  -3.87729154669819E-04  1.49387824910170E-01
 cg2d: Sum(rhs),rhsMax =  -3.87980127777936E-04  1.49384168542590E-01
 cg2d: Sum(rhs),rhsMax =  -3.88230368800812E-04  1.49380497436107E-01
 cg2d: Sum(rhs),rhsMax =  -3.88479873310706E-04  1.49376811589979E-01
 cg2d: Sum(rhs),rhsMax =  -3.88728636452171E-04  1.49373111003496E-01
 cg2d: Sum(rhs),rhsMax =  -3.89038781907985E-04  1.49369395296598E-01
 cg2d: Sum(rhs),rhsMax =  -3.89348043004330E-04  1.49365665218930E-01
 cg2d: Sum(rhs),rhsMax =  -3.89656330997785E-04  1.49361920403517E-01
 cg2d: Sum(rhs),rhsMax =  -3.89962909581393E-04  1.49358437981274E-01
 cg2d: Sum(rhs),rhsMax =  -3.90266940379299E-04  1.49355530240087E-01
 cg2d: Sum(rhs),rhsMax =  -3.90569950142352E-04  1.49352607460697E-01
 cg2d: Sum(rhs),rhsMax =  -3.90871931822830E-04  1.49349669642081E-01
 cg2d: Sum(rhs),rhsMax =  -3.91172878287456E-04  1.49346716784260E-01
 cg2d: Sum(rhs),rhsMax =  -3.91472778928890E-04  1.49343748887396E-01
 cg2d: Sum(rhs),rhsMax =  -3.91771619557110E-04  1.49340765951358E-01
 cg2d: Sum(rhs),rhsMax =  -3.92069383668891E-04  1.49337767975614E-01
 cg2d: Sum(rhs),rhsMax =  -3.92366054008865E-04  1.49334754959360E-01
 cg2d: Sum(rhs),rhsMax =  -3.92661612694137E-04  1.49331726901712E-01
 cg2d: Sum(rhs),rhsMax =  -3.92956041828427E-04  1.49328683801843E-01
 cg2d: Sum(rhs),rhsMax =  -3.93249322583273E-04  1.49325625659024E-01
 cg2d: Sum(rhs),rhsMax =  -3.93541435094316E-04  1.49322552472612E-01
 cg2d: Sum(rhs),rhsMax =  -3.93832357987728E-04  1.49319464242021E-01
 cg2d: Sum(rhs),rhsMax =  -3.94122068684894E-04  1.49316360966715E-01
 cg2d: Sum(rhs),rhsMax =  -3.94410542696339E-04  1.49313242646200E-01
 cg2d: Sum(rhs),rhsMax =  -3.94697754163520E-04  1.49310109280024E-01
 cg2d: Sum(rhs),rhsMax =  -3.94983675663195E-04  1.49306960867772E-01
 cg2d: Sum(rhs),rhsMax =  -3.95268277832147E-04  1.49303797409065E-01
 cg2d: Sum(rhs),rhsMax =  -3.95551529716010E-04  1.49300618903545E-01
 cg2d: Sum(rhs),rhsMax =  -3.95833398096296E-04  1.49297425350881E-01
 cg2d: Sum(rhs),rhsMax =  -3.96113847770577E-04  1.49294216750757E-01
 cg2d: Sum(rhs),rhsMax =  -3.96392841026340E-04  1.49290993102888E-01
 cg2d: Sum(rhs),rhsMax =  -3.96670337620929E-04  1.49287754407016E-01
 cg2d: Sum(rhs),rhsMax =  -3.96946294621311E-04  1.49284500662921E-01
 cg2d: Sum(rhs),rhsMax =  -3.97220666098531E-04  1.49281231870422E-01
 cg2d: Sum(rhs),rhsMax =  -3.97493403194758E-04  1.49277948029373E-01
 cg2d: Sum(rhs),rhsMax =  -3.97764453268316E-04  1.49274649139666E-01
 cg2d: Sum(rhs),rhsMax =  -3.98033760210148E-04  1.49271335201226E-01
 cg2d: Sum(rhs),rhsMax =  -3.98301264002861E-04  1.49268006214012E-01
 cg2d: Sum(rhs),rhsMax =  -3.98566900027297E-04  1.49264662178010E-01
 cg2d: Sum(rhs),rhsMax =  -3.98830599337496E-04  1.49261303093241E-01
 cg2d: Sum(rhs),rhsMax =  -3.99092287694074E-04  1.49257928959754E-01
 cg2d: Sum(rhs),rhsMax =  -3.99351885638669E-04  1.49254539777632E-01
 cg2d: Sum(rhs),rhsMax =  -3.99609307873820E-04  1.49251135546989E-01
 cg2d: Sum(rhs),rhsMax =  -3.99864462486033E-04  1.49247716267975E-01
 cg2d: Sum(rhs),rhsMax =  -4.00117251028481E-04  1.49244281940770E-01
 cg2d: Sum(rhs),rhsMax =  -4.00429213902377E-04  1.49240832746501E-01
 cg2d: Sum(rhs),rhsMax =  -4.00737585882381E-04  1.49237368325450E-01
 cg2d: Sum(rhs),rhsMax =  -4.01042245604693E-04  1.49233888845804E-01
 cg2d: Sum(rhs),rhsMax =  -4.01342981693974E-04  1.49230394330452E-01
 cg2d: Sum(rhs),rhsMax =  -4.01639603007283E-04  1.49226884768639E-01
 cg2d: Sum(rhs),rhsMax =  -4.01931912087912E-04  1.49223360158272E-01
 cg2d: Sum(rhs),rhsMax =  -4.02219700866583E-04  1.49219820499072E-01
 cg2d: Sum(rhs),rhsMax =  -4.02502744968235E-04  1.49216265792315E-01
 cg2d: Sum(rhs),rhsMax =  -4.02780801364345E-04  1.49212696039568E-01
 cg2d: Sum(rhs),rhsMax =  -4.03170389073160E-04  1.49209111525396E-01
 cg2d: Sum(rhs),rhsMax =  -4.03550779497281E-04  1.49205511654446E-01
 cg2d: Sum(rhs),rhsMax =  -4.03921538423067E-04  1.49201896754457E-01
 cg2d: Sum(rhs),rhsMax =  -4.04282234914261E-04  1.49198266833108E-01
 cg2d: Sum(rhs),rhsMax =  -4.04686464575082E-04  1.49194621632385E-01
 cg2d: Sum(rhs),rhsMax =  -4.05077556960115E-04  1.49190961588991E-01
 cg2d: Sum(rhs),rhsMax =  -4.05455018940363E-04  1.49187286534376E-01
 cg2d: Sum(rhs),rhsMax =  -4.05863697562166E-04  1.49183596385572E-01
 cg2d: Sum(rhs),rhsMax =  -4.06255687514913E-04  1.49179891232480E-01
 cg2d: Sum(rhs),rhsMax =  -4.06630561113230E-04  1.49176171057209E-01
 cg2d: Sum(rhs),rhsMax =  -4.06987919861331E-04  1.49172435846606E-01
 cg2d: Sum(rhs),rhsMax =  -4.07327437688730E-04  1.49168685598880E-01
 cg2d: Sum(rhs),rhsMax =  -4.07648869679959E-04  1.49164920314663E-01
 cg2d: Sum(rhs),rhsMax =  -4.07952070010172E-04  1.49161139994443E-01
 cg2d: Sum(rhs),rhsMax =  -4.08237013837424E-04  1.49157344639214E-01
 cg2d: Sum(rhs),rhsMax =  -4.08539614927572E-04  1.49153534169503E-01
(PID.TID 0000.0001)      cg2d_init_res =   1.23203205585915E-03
(PID.TID 0000.0001)      cg2d_iters(min,last) =      -1      72
(PID.TID 0000.0001)      cg2d_last_res =   9.77748202023110E-08
(PID.TID 0000.0001) // =======================================================
(PID.TID 0000.0001) // Begin MONITOR dynamic field statistics
(PID.TID 0000.0001) // =======================================================
(PID.TID 0000.0001) %MON time_tsnumber                =                  5832
(PID.TID 0000.0001) %MON time_secondsf                =   6.9984000000000E+06
(PID.TID 0000.0001) %MON dynstat_eta_max              =   5.3208269593573E-02
(PID.TID 0000.0001) %MON dynstat_eta_min              =  -2.0504929564888E-02
(PID.TID 0000.0001) %MON dynstat_eta_mean             =   3.0487866785722E-07
(PID.TID 0000.0001) %MON dynstat_eta_sd               =   1.9647226132959E-02
(PID.TID 0000.0001) %MON dynstat_eta_del2             =   1.8737044944599E-05
(PID.TID 0000.0001) %MON dynstat_uvel_max             =   3.0099927702325E-02
(PID.TID 0000.0001) %MON dynstat_uvel_min             =  -1.6712081544330E-02
(PID.TID 0000.0001) %MON dynstat_uvel_mean            =   1.9582398131450E-09
(PID.TID 0000.0001) %MON dynstat_uvel_sd              =   7.0120171728941E-03
(PID.TID 0000.0001) %MON dynstat_uvel_del2            =   8.2291778828525E-06
(PID.TID 0000.0001) %MON dynstat_vvel_max             =   8.9334540192767E-02
(PID.TID 0000.0001) %MON dynstat_vvel_min             =  -3.4144780501882E-02
(PID.TID 0000.0001) %MON dynstat_vvel_mean            =   4.7329962238580E-09
(PID.TID 0000.0001) %MON dynstat_vvel_sd              =   1.5909792515244E-02
(PID.TID 0000.0001) %MON dynstat_vvel_del2            =   7.5919663632561E-05
(PID.TID 0000.0001) %MON dynstat_wvel_max             =   8.5544512237539E-09
(PID.TID 0000.0001) %MON dynstat_wvel_min             =  -2.0611701431917E-08
(PID.TID 0000.0001) %MON dynstat_wvel_mean            =   1.1427689767313E-21
(PID.TID 0000.0001) %MON dynstat_wvel_sd              =   6.9887817426493E-09
(PID.TID 0000.0001) %MON dynstat_wvel_del2            =   3.1473147199789E-12
(PID.TID 0000.0001) %MON dynstat_theta_max            =   2.0000000000000E+01
(PID.TID 0000.0001) %MON dynstat_theta_min            =   2.0000000000000E+01
(PID.TID 0000.0001) %MON dynstat_theta_mean           =   2.0000000000000E+01
(PID.TID 0000.0001) %MON dynstat_theta_sd             =   0.0000000000000E+00
(PID.TID 0000.0001) %MON dynstat_theta_del2           =   0.0000000000000E+00
(PID.TID 0000.0001) %MON dynstat_salt_max             =   3.0000000000000E+01
(PID.TID 0000.0001) %MON dynstat_salt_min             =   3.0000000000000E+01
(PID.TID 0000.0001) %MON dynstat_salt_mean            =   3.0000000000000E+01
(PID.TID 0000.0001) %MON dynstat_salt_sd              =   0.0000000000000E+00
(PID.TID 0000.0001) %MON dynstat_salt_del2            =   0.0000000000000E+00
(PID.TID 0000.0001) %MON trAdv_CFL_u_max              =   1.8059132348610E-03
(PID.TID 0000.0001) %MON trAdv_CFL_v_max              =   5.3602193240760E-03
(PID.TID 0000.0001) %MON trAdv_CFL_w_max              =   2.0562162510934E-09
(PID.TID 0000.0001) %MON advcfl_uvel_max              =   1.8059956621395E-03
(PID.TID 0000.0001) %MON advcfl_vvel_max              =   5.3600724115660E-03
(PID.TID 0000.0001) %MON advcfl_wvel_max              =   9.8936166873202E-09
(PID.TID 0000.0001) %MON advcfl_W_hf_max              =   0.0000000000000E+00
(PID.TID 0000.0001) %MON pe_b_mean                    =   3.7867923841115E-07
(PID.TID 0000.0001) %MON ke_max                       =   3.9870589664433E-03
(PID.TID 0000.0001) %MON ke_mean                      =   1.4862585899963E-04
(PID.TID 0000.0001) %MON ke_vol                       =   7.2000000000000E+15
(PID.TID 0000.0001) %MON vort_r_min                   =  -1.5829759551901E-06
(PID.TID 0000.0001) %MON vort_r_max                   =   2.4441119035174E-06
(PID.TID 0000.0001) %MON vort_a_mean                  =   1.0600000000000E-04
(PID.TID 0000.0001) %MON vort_a_sd                    =   3.5382587170327E-06
(PID.TID 0000.0001) %MON vort_p_mean                  =   1.1130000000000E-04
(PID.TID 0000.0001) %MON vort_p_sd                    =   4.1151667101058E-05
(PID.TID 0000.0001) %MON surfExpan_theta_mean         =   2.2855317638459E-20
(PID.TID 0000.0001) %MON surfExpan_salt_mean          =   3.4287476561682E-20
(PID.TID 0000.0001) // =======================================================
(PID.TID 0000.0001) // End MONITOR dynamic field statistics
(PID.TID 0000.0001) // =======================================================
 cg2d: Sum(rhs),rhsMax =  -4.08822344246169E-04  1.49149708747540E-01
 cg2d: Sum(rhs),rhsMax =  -4.09085794485638E-04  1.49145868292719E-01
 cg2d: Sum(rhs),rhsMax =  -4.09330822638570E-04  1.49142012806767E-01
 cg2d: Sum(rhs),rhsMax =  -4.09558529230619E-04  1.49138142292550E-01
 cg2d: Sum(rhs),rhsMax =  -4.09770265167969E-04  1.49134256750217E-01
 cg2d: Sum(rhs),rhsMax =  -4.09967629722438E-04  1.49130356179706E-01
 cg2d: Sum(rhs),rhsMax =  -4.10152464181034E-04  1.49126440581570E-01
 cg2d: Sum(rhs),rhsMax =  -4.10326838519564E-04  1.49122509957017E-01
 cg2d: Sum(rhs),rhsMax =  -4.10493027792220E-04  1.49118564307616E-01
 cg2d: Sum(rhs),rhsMax =  -4.10653477509181E-04  1.49114603635022E-01
 cg2d: Sum(rhs),rhsMax =  -4.10810756959671E-04  1.49110627940821E-01
 cg2d: Sum(rhs),rhsMax =  -4.10967503666274E-04  1.49106637226485E-01
 cg2d: Sum(rhs),rhsMax =  -4.11126362098567E-04  1.49102631493387E-01
 cg2d: Sum(rhs),rhsMax =  -4.11289921462862E-04  1.49098610742853E-01
 cg2d: Sum(rhs),rhsMax =  -4.11460656122894E-04  1.49094574976225E-01
 cg2d: Sum(rhs),rhsMax =  -4.11640872210221E-04  1.49090524194928E-01
 cg2d: Sum(rhs),rhsMax =  -4.11832663102227E-04  1.49086458400495E-01
 cg2d: Sum(rhs),rhsMax =  -4.12037875649872E-04  1.49082377594580E-01
 cg2d: Sum(rhs),rhsMax =  -4.12258087583305E-04  1.49078281778928E-01
 cg2d: Sum(rhs),rhsMax =  -4.12494595703980E-04  1.49074170955354E-01
 cg2d: Sum(rhs),rhsMax =  -4.12748415193975E-04  1.49070045125704E-01
 cg2d: Sum(rhs),rhsMax =  -4.13020287301630E-04  1.49065904291838E-01
 cg2d: Sum(rhs),rhsMax =  -4.13310695243892E-04  1.49061748455625E-01
 cg2d: Sum(rhs),rhsMax =  -4.13582335561423E-04  1.49057577701156E-01
 cg2d: Sum(rhs),rhsMax =  -4.13870720581876E-04  1.49053391878802E-01
 cg2d: Sum(rhs),rhsMax =  -4.14175654631658E-04  1.49049191056196E-01
 cg2d: Sum(rhs),rhsMax =  -4.14496781083191E-04  1.49044975242229E-01
 cg2d: Sum(rhs),rhsMax =  -4.14833637233666E-04  1.49040744434033E-01
 cg2d: Sum(rhs),rhsMax =  -4.15185681300627E-04  1.49036498633507E-01
 cg2d: Sum(rhs),rhsMax =  -4.15552315599333E-04  1.49032237843248E-01
 cg2d: Sum(rhs),rhsMax =  -4.15932902084372E-04  1.49027962065977E-01
 cg2d: Sum(rhs),rhsMax =  -4.16326775317250E-04  1.49023671304247E-01
 cg2d: Sum(rhs),rhsMax =  -4.16686692165645E-04  1.49019365610559E-01
 cg2d: Sum(rhs),rhsMax =  -4.17056901794409E-04  1.49015044921965E-01
 cg2d: Sum(rhs),rhsMax =  -4.17436749660530E-04  1.49010709231093E-01
 cg2d: Sum(rhs),rhsMax =  -4.17825617664827E-04  1.49006358563537E-01
 cg2d: Sum(rhs),rhsMax =  -4.18222901335923E-04  1.49001992921498E-01
 cg2d: Sum(rhs),rhsMax =  -4.18628021826671E-04  1.48997612306990E-01
 cg2d: Sum(rhs),rhsMax =  -4.18984604845453E-04  1.48993216956304E-01
 cg2d: Sum(rhs),rhsMax =  -4.19346727473536E-04  1.48988806461300E-01
 cg2d: Sum(rhs),rhsMax =  -4.19713996900242E-04  1.48984380957752E-01
 cg2d: Sum(rhs),rhsMax =  -4.20086012946123E-04  1.48979940487647E-01
 cg2d: Sum(rhs),rhsMax =  -4.20462405714404E-04  1.48975485056546E-01
 cg2d: Sum(rhs),rhsMax =  -4.20842824496843E-04  1.48971014668278E-01
 cg2d: Sum(rhs),rhsMax =  -4.21226939274738E-04  1.48966529325202E-01
 cg2d: Sum(rhs),rhsMax =  -4.21614441794028E-04  1.48962029029661E-01
 cg2d: Sum(rhs),rhsMax =  -4.22005045265287E-04  1.48957513784081E-01
 cg2d: Sum(rhs),rhsMax =  -4.22398482726085E-04  1.48952983591119E-01
 cg2d: Sum(rhs),rhsMax =  -4.22794505313571E-04  1.48948438453594E-01
 cg2d: Sum(rhs),rhsMax =  -4.23192880012297E-04  1.48943878374346E-01
 cg2d: Sum(rhs),rhsMax =  -4.23474058377074E-04  1.48939303049876E-01
 cg2d: Sum(rhs),rhsMax =  -4.23756393207705E-04  1.48934713137939E-01
 cg2d: Sum(rhs),rhsMax =  -4.24039786648978E-04  1.48930108276359E-01
 cg2d: Sum(rhs),rhsMax =  -4.24324169851810E-04  1.48925488462583E-01
 cg2d: Sum(rhs),rhsMax =  -4.24609463353027E-04  1.48920853718001E-01
 cg2d: Sum(rhs),rhsMax =  -4.24895576667323E-04  1.48916204049268E-01
 cg2d: Sum(rhs),rhsMax =  -4.25182416233553E-04  1.48911539458657E-01
 cg2d: Sum(rhs),rhsMax =  -4.25469894108484E-04  1.48906859947999E-01
 cg2d: Sum(rhs),rhsMax =  -4.25757932268398E-04  1.48902165519792E-01
 cg2d: Sum(rhs),rhsMax =  -4.26046462494264E-04  1.48897456177308E-01
 cg2d: Sum(rhs),rhsMax =  -4.26335423658757E-04  1.48892731924241E-01
 cg2d: Sum(rhs),rhsMax =  -4.26624759132271E-04  1.48887992764228E-01
 cg2d: Sum(rhs),rhsMax =  -4.26914414464025E-04  1.48883238700549E-01
 cg2d: Sum(rhs),rhsMax =  -4.27204337538962E-04  1.48878469736099E-01
 cg2d: Sum(rhs),rhsMax =  -4.27494478595366E-04  1.48873685873573E-01
 cg2d: Sum(rhs),rhsMax =  -4.27784790950144E-04  1.48868887115693E-01
 cg2d: Sum(rhs),rhsMax =  -4.28075231128927E-04  1.48864073465372E-01
 cg2d: Sum(rhs),rhsMax =  -4.28365758854657E-04  1.48859244925774E-01
 cg2d: Sum(rhs),rhsMax =  -4.28656336378966E-04  1.48854401500260E-01
 cg2d: Sum(rhs),rhsMax =  -4.28946928510615E-04  1.48849543192309E-01
 cg2d: Sum(rhs),rhsMax =  -4.29237502124108E-04  1.48844670005426E-01
 cg2d: Sum(rhs),rhsMax =  -4.29528025971890E-04  1.48839781943092E-01
(PID.TID 0000.0001)      cg2d_init_res =   1.23141407768182E-03
(PID.TID 0000.0001)      cg2d_iters(min,last) =      -1      77
(PID.TID 0000.0001)      cg2d_last_res =   9.13831222992229E-08
(PID.TID 0000.0001) // =======================================================
(PID.TID 0000.0001) // Begin MONITOR dynamic field statistics
(PID.TID 0000.0001) // =======================================================
(PID.TID 0000.0001) %MON time_tsnumber                =                  5904
(PID.TID 0000.0001) %MON time_secondsf                =   7.0848000000000E+06
(PID.TID 0000.0001) %MON dynstat_eta_max              =   5.3276196321809E-02
(PID.TID 0000.0001) %MON dynstat_eta_min              =  -2.0141235639515E-02
(PID.TID 0000.0001) %MON dynstat_eta_mean             =   3.1985990039526E-07
(PID.TID 0000.0001) %MON dynstat_eta_sd               =   1.9508963706458E-02
(PID.TID 0000.0001) %MON dynstat_eta_del2             =   1.8744729604699E-05
(PID.TID 0000.0001) %MON dynstat_uvel_max             =   3.0191925172689E-02
(PID.TID 0000.0001) %MON dynstat_uvel_min             =  -1.6656798557641E-02
(PID.TID 0000.0001) %MON dynstat_uvel_mean            =   3.2856804351809E-08
(PID.TID 0000.0001) %MON dynstat_uvel_sd              =   6.9376241659609E-03
(PID.TID 0000.0001) %MON dynstat_uvel_del2            =   8.2040250939495E-06
(PID.TID 0000.0001) %MON dynstat_vvel_max             =   8.9135828945464E-02
(PID.TID 0000.0001) %MON dynstat_vvel_min             =  -3.4314614651897E-02
(PID.TID 0000.0001) %MON dynstat_vvel_mean            =   5.2621160213292E-09
(PID.TID 0000.0001) %MON dynstat_vvel_sd              =   1.5889879848737E-02
(PID.TID 0000.0001) %MON dynstat_vvel_del2            =   7.6017937226141E-05
(PID.TID 0000.0001) %MON dynstat_wvel_max             =   8.0213844143327E-09
(PID.TID 0000.0001) %MON dynstat_wvel_min             =  -2.0647286457242E-08
(PID.TID 0000.0001) %MON dynstat_wvel_mean            =  -2.6389741631445E-21
(PID.TID 0000.0001) %MON dynstat_wvel_sd              =   6.9686345698894E-09
(PID.TID 0000.0001) %MON dynstat_wvel_del2            =   3.1213324693305E-12
(PID.TID 0000.0001) %MON dynstat_theta_max            =   2.0000000000000E+01
(PID.TID 0000.0001) %MON dynstat_theta_min            =   2.0000000000000E+01
(PID.TID 0000.0001) %MON dynstat_theta_mean           =   2.0000000000000E+01
(PID.TID 0000.0001) %MON dynstat_theta_sd             =   0.0000000000000E+00
(PID.TID 0000.0001) %MON dynstat_theta_del2           =   0.0000000000000E+00
(PID.TID 0000.0001) %MON dynstat_salt_max             =   3.0000000000000E+01
(PID.TID 0000.0001) %MON dynstat_salt_min             =   3.0000000000000E+01
(PID.TID 0000.0001) %MON dynstat_salt_mean            =   3.0000000000000E+01
(PID.TID 0000.0001) %MON dynstat_salt_sd              =   0.0000000000000E+00
(PID.TID 0000.0001) %MON dynstat_salt_del2            =   0.0000000000000E+00
(PID.TID 0000.0001) %MON trAdv_CFL_u_max              =   1.8114444939864E-03
(PID.TID 0000.0001) %MON trAdv_CFL_v_max              =   5.3483334886550E-03
(PID.TID 0000.0001) %MON trAdv_CFL_w_max              =   1.9228934232946E-09
(PID.TID 0000.0001) %MON advcfl_uvel_max              =   1.8115155103613E-03
(PID.TID 0000.0001) %MON advcfl_vvel_max              =   5.3481497367279E-03
(PID.TID 0000.0001) %MON advcfl_wvel_max              =   9.9106974994764E-09
(PID.TID 0000.0001) %MON advcfl_W_hf_max              =   0.0000000000000E+00
(PID.TID 0000.0001) %MON pe_b_mean                    =   3.7336827136716E-07
(PID.TID 0000.0001) %MON ke_max                       =   3.9709830525317E-03
(PID.TID 0000.0001) %MON ke_mean                      =   1.4780429774929E-04
(PID.TID 0000.0001) %MON ke_vol                       =   7.2000000000000E+15
(PID.TID 0000.0001) %MON vort_r_min                   =  -1.5851714420687E-06
(PID.TID 0000.0001) %MON vort_r_max                   =   2.4367318851552E-06
(PID.TID 0000.0001) %MON vort_a_mean                  =   1.0600000000000E-04
(PID.TID 0000.0001) %MON vort_a_sd                    =   3.5382553857934E-06
(PID.TID 0000.0001) %MON vort_p_mean                  =   1.1130000000000E-04
(PID.TID 0000.0001) %MON vort_p_sd                    =   4.1151559992027E-05
(PID.TID 0000.0001) %MON surfExpan_theta_mean         =  -5.2809273003934E-20
(PID.TID 0000.0001) %MON surfExpan_salt_mean          =  -7.9207593570471E-20
(PID.TID 0000.0001) // =======================================================
(PID.TID 0000.0001) // End MONITOR dynamic field statistics
(PID.TID 0000.0001) // =======================================================
 cg2d: Sum(rhs),rhsMax =  -4.29818470699546E-04  1.48834879008739E-01
 cg2d: Sum(rhs),rhsMax =  -4.30108808403534E-04  1.48829961205770E-01
 cg2d: Sum(rhs),rhsMax =  -4.30399013086313E-04  1.48825028537582E-01
 cg2d: Sum(rhs),rhsMax =  -4.30689060214777E-04  1.48820081007601E-01
 cg2d: Sum(rhs),rhsMax =  -4.30978926709624E-04  1.48815118619296E-01
 cg2d: Sum(rhs),rhsMax =  -4.31268590701459E-04  1.48810141376197E-01
 cg2d: Sum(rhs),rhsMax =  -4.31558031743054E-04  1.48805149281892E-01
 cg2d: Sum(rhs),rhsMax =  -4.31904834416738E-04  1.48800142290693E-01
 cg2d: Sum(rhs),rhsMax =  -4.32251303508200E-04  1.48795120493672E-01
 cg2d: Sum(rhs),rhsMax =  -4.32597328793482E-04  1.48790083854835E-01
 cg2d: Sum(rhs),rhsMax =  -4.33004975642461E-04  1.48785032744596E-01
 cg2d: Sum(rhs),rhsMax =  -4.33411940061352E-04  1.48779966427705E-01
 cg2d: Sum(rhs),rhsMax =  -4.33818205605856E-04  1.48774885286100E-01
 cg2d: Sum(rhs),rhsMax =  -4.34223707276157E-04  1.48769789333236E-01
 cg2d: Sum(rhs),rhsMax =  -4.34628413809828E-04  1.48764678559060E-01
 cg2d: Sum(rhs),rhsMax =  -4.35032309566127E-04  1.48759552966457E-01
 cg2d: Sum(rhs),rhsMax =  -4.35435385561683E-04  1.48754412559782E-01
 cg2d: Sum(rhs),rhsMax =  -4.35837631786166E-04  1.48749257343641E-01
 cg2d: Sum(rhs),rhsMax =  -4.36239034640627E-04  1.48744087322228E-01
 cg2d: Sum(rhs),rhsMax =  -4.36639577820679E-04  1.48738902499447E-01
 cg2d: Sum(rhs),rhsMax =  -4.37039244689061E-04  1.48733702879114E-01
 cg2d: Sum(rhs),rhsMax =  -4.37438020231353E-04  1.48728488465155E-01
 cg2d: Sum(rhs),rhsMax =  -4.37835891363372E-04  1.48723259261684E-01
 cg2d: Sum(rhs),rhsMax =  -4.38232847153115E-04  1.48718015272976E-01
 cg2d: Sum(rhs),rhsMax =  -4.38628877834641E-04  1.48712756503379E-01
 cg2d: Sum(rhs),rhsMax =  -4.39023974433149E-04  1.48707482957236E-01
 cg2d: Sum(rhs),rhsMax =  -4.39418128435158E-04  1.48702194638846E-01
 cg2d: Sum(rhs),rhsMax =  -4.39811331720857E-04  1.48696891552462E-01
 cg2d: Sum(rhs),rhsMax =  -4.40203576809577E-04  1.48691573702334E-01
 cg2d: Sum(rhs),rhsMax =  -4.40594857002486E-04  1.48686241092734E-01
 cg2d: Sum(rhs),rhsMax =  -4.40985166292077E-04  1.48680893727991E-01
 cg2d: Sum(rhs),rhsMax =  -4.41374499351782E-04  1.48675531612497E-01
 cg2d: Sum(rhs),rhsMax =  -4.41762851491004E-04  1.48670154750703E-01
 cg2d: Sum(rhs),rhsMax =  -4.42150218614848E-04  1.48664763147109E-01
 cg2d: Sum(rhs),rhsMax =  -4.42536597170420E-04  1.48659356806254E-01
 cg2d: Sum(rhs),rhsMax =  -4.42921984076508E-04  1.48653935732703E-01
 cg2d: Sum(rhs),rhsMax =  -4.43306376861503E-04  1.48648499931044E-01
 cg2d: Sum(rhs),rhsMax =  -4.43689773435649E-04  1.48643049405889E-01
 cg2d: Sum(rhs),rhsMax =  -4.44072172167906E-04  1.48637584161874E-01
 cg2d: Sum(rhs),rhsMax =  -4.44453571976196E-04  1.48632104203668E-01
 cg2d: Sum(rhs),rhsMax =  -4.44833972075062E-04  1.48626609535970E-01
 cg2d: Sum(rhs),rhsMax =  -4.45213372256017E-04  1.48621100163516E-01
 cg2d: Sum(rhs),rhsMax =  -4.45591772586591E-04  1.48615576091077E-01
 cg2d: Sum(rhs),rhsMax =  -4.45969173571999E-04  1.48610037323460E-01
 cg2d: Sum(rhs),rhsMax =  -4.46345576153377E-04  1.48604483865509E-01
 cg2d: Sum(rhs),rhsMax =  -4.46720981401757E-04  1.48598915722098E-01
 cg2d: Sum(rhs),rhsMax =  -4.47095390890434E-04  1.48593332898136E-01
 cg2d: Sum(rhs),rhsMax =  -4.47468806600046E-04  1.48587735398563E-01
 cg2d: Sum(rhs),rhsMax =  -4.47841230612794E-04  1.48582123228350E-01
 cg2d: Sum(rhs),rhsMax =  -4.48212665367338E-04  1.48576496392500E-01
 cg2d: Sum(rhs),rhsMax =  -4.48583113787523E-04  1.48570854896050E-01
 cg2d: Sum(rhs),rhsMax =  -4.48952578884296E-04  1.48565198744067E-01
 cg2d: Sum(rhs),rhsMax =  -4.49321063890513E-04  1.48559527941654E-01
 cg2d: Sum(rhs),rhsMax =  -4.49688572446110E-04  1.48553842493943E-01
 cg2d: Sum(rhs),rhsMax =  -4.50055108384243E-04  1.48548142406104E-01
 cg2d: Sum(rhs),rhsMax =  -4.50420675606804E-04  1.48542427683337E-01
 cg2d: Sum(rhs),rhsMax =  -4.50785278576089E-04  1.48536698330876E-01
 cg2d: Sum(rhs),rhsMax =  -4.51148921685283E-04  1.48530954353988E-01
 cg2d: Sum(rhs),rhsMax =  -4.51511609603425E-04  1.48525195757971E-01
 cg2d: Sum(rhs),rhsMax =  -4.51873347273544E-04  1.48519422548157E-01
 cg2d: Sum(rhs),rhsMax =  -4.52234139712872E-04  1.48513634729911E-01
 cg2d: Sum(rhs),rhsMax =  -4.52593992177471E-04  1.48507832308630E-01
 cg2d: Sum(rhs),rhsMax =  -4.52952910202406E-04  1.48502015289743E-01
 cg2d: Sum(rhs),rhsMax =  -4.53310899336460E-04  1.48496183678713E-01
 cg2d: Sum(rhs),rhsMax =  -4.53667965152553E-04  1.48490337481034E-01
 cg2d: Sum(rhs),rhsMax =  -4.54024113726718E-04  1.48484476702236E-01
 cg2d: Sum(rhs),rhsMax =  -4.54379350995199E-04  1.48478601347879E-01
 cg2d: Sum(rhs),rhsMax =  -4.54733683133927E-04  1.48472711423555E-01
 cg2d: Sum(rhs),rhsMax =  -4.55087116434600E-04  1.48466806934893E-01
 cg2d: Sum(rhs),rhsMax =  -4.55439657288625E-04  1.48460887887550E-01
 cg2d: Sum(rhs),rhsMax =  -4.55791312183413E-04  1.48454954287217E-01
 cg2d: Sum(rhs),rhsMax =  -4.56142087639969E-04  1.48449006139620E-01
(PID.TID 0000.0001)      cg2d_init_res =   1.23164420183113E-03
(PID.TID 0000.0001)      cg2d_iters(min,last) =      -1      75
(PID.TID 0000.0001)      cg2d_last_res =   8.87246565302194E-08
(PID.TID 0000.0001) // =======================================================
(PID.TID 0000.0001) // Begin MONITOR dynamic field statistics
(PID.TID 0000.0001) // =======================================================
(PID.TID 0000.0001) %MON time_tsnumber                =                  5976
(PID.TID 0000.0001) %MON time_secondsf                =   7.1712000000000E+06
(PID.TID 0000.0001) %MON dynstat_eta_max              =   5.3298151013280E-02
(PID.TID 0000.0001) %MON dynstat_eta_min              =  -1.9783369424281E-02
(PID.TID 0000.0001) %MON dynstat_eta_mean             =   3.3881530192246E-07
(PID.TID 0000.0001) %MON dynstat_eta_sd               =   1.9341408596934E-02
(PID.TID 0000.0001) %MON dynstat_eta_del2             =   1.8749140615290E-05
(PID.TID 0000.0001) %MON dynstat_uvel_max             =   3.0270095859326E-02
(PID.TID 0000.0001) %MON dynstat_uvel_min             =  -1.6616528591892E-02
(PID.TID 0000.0001) %MON dynstat_uvel_mean            =   6.3438409515520E-08
(PID.TID 0000.0001) %MON dynstat_uvel_sd              =   6.8592688182931E-03
(PID.TID 0000.0001) %MON dynstat_uvel_del2            =   8.1766933547776E-06
(PID.TID 0000.0001) %MON dynstat_vvel_max             =   8.8893029933150E-02
(PID.TID 0000.0001) %MON dynstat_vvel_min             =  -3.4486848544602E-02
(PID.TID 0000.0001) %MON dynstat_vvel_mean            =   5.6253088631868E-09
(PID.TID 0000.0001) %MON dynstat_vvel_sd              =   1.5864443060275E-02
(PID.TID 0000.0001) %MON dynstat_vvel_del2            =   7.6092633758418E-05
(PID.TID 0000.0001) %MON dynstat_wvel_max             =   8.7347856662382E-09
(PID.TID 0000.0001) %MON dynstat_wvel_min             =  -2.0608593473444E-08
(PID.TID 0000.0001) %MON dynstat_wvel_mean            =  -2.3134551459710E-22
(PID.TID 0000.0001) %MON dynstat_wvel_sd              =   6.9521523670779E-09
(PID.TID 0000.0001) %MON dynstat_wvel_del2            =   3.0969978655841E-12
(PID.TID 0000.0001) %MON dynstat_theta_max            =   2.0000000000000E+01
(PID.TID 0000.0001) %MON dynstat_theta_min            =   2.0000000000000E+01
(PID.TID 0000.0001) %MON dynstat_theta_mean           =   2.0000000000000E+01
(PID.TID 0000.0001) %MON dynstat_theta_sd             =   0.0000000000000E+00
(PID.TID 0000.0001) %MON dynstat_theta_del2           =   0.0000000000000E+00
(PID.TID 0000.0001) %MON dynstat_salt_max             =   3.0000000000000E+01
(PID.TID 0000.0001) %MON dynstat_salt_min             =   3.0000000000000E+01
(PID.TID 0000.0001) %MON dynstat_salt_mean            =   3.0000000000000E+01
(PID.TID 0000.0001) %MON dynstat_salt_sd              =   0.0000000000000E+00
(PID.TID 0000.0001) %MON dynstat_salt_del2            =   0.0000000000000E+00
(PID.TID 0000.0001) %MON trAdv_CFL_u_max              =   1.8161463442843E-03
(PID.TID 0000.0001) %MON trAdv_CFL_v_max              =   5.3338021213251E-03
(PID.TID 0000.0001) %MON trAdv_CFL_w_max              =   2.0939435888584E-09
(PID.TID 0000.0001) %MON advcfl_uvel_max              =   1.8162057515595E-03
(PID.TID 0000.0001) %MON advcfl_vvel_max              =   5.3335817959890E-03
(PID.TID 0000.0001) %MON advcfl_wvel_max              =   9.8921248672530E-09
(PID.TID 0000.0001) %MON advcfl_W_hf_max              =   0.0000000000000E+00
(PID.TID 0000.0001) %MON pe_b_mean                    =   3.6698237498239E-07
(PID.TID 0000.0001) %MON ke_max                       =   3.9509703026287E-03
(PID.TID 0000.0001) %MON ke_mean                      =   1.4687564348303E-04
(PID.TID 0000.0001) %MON ke_vol                       =   7.2000000000000E+15
(PID.TID 0000.0001) %MON vort_r_min                   =  -1.5867514398108E-06
(PID.TID 0000.0001) %MON vort_r_max                   =   2.4287083019556E-06
(PID.TID 0000.0001) %MON vort_a_mean                  =   1.0600000000000E-04
(PID.TID 0000.0001) %MON vort_a_sd                    =   3.5382403080407E-06
(PID.TID 0000.0001) %MON vort_p_mean                  =   1.1130000000000E-04
(PID.TID 0000.0001) %MON vort_p_sd                    =   4.1151455416322E-05
(PID.TID 0000.0001) %MON surfExpan_theta_mean         =  -4.6485235414037E-21
(PID.TID 0000.0001) %MON surfExpan_salt_mean          =  -6.9694719131677E-21
(PID.TID 0000.0001) // =======================================================
(PID.TID 0000.0001) // End MONITOR dynamic field statistics
(PID.TID 0000.0001) // =======================================================
 cg2d: Sum(rhs),rhsMax =  -4.56491990534161E-04  1.48443043450514E-01
 cg2d: Sum(rhs),rhsMax =  -4.56841027526132E-04  1.48437066225690E-01
 cg2d: Sum(rhs),rhsMax =  -4.57243219089996E-04  1.48431074257571E-01
 cg2d: Sum(rhs),rhsMax =  -4.57644477717652E-04  1.48425067930376E-01
 cg2d: Sum(rhs),rhsMax =  -4.58044765643468E-04  1.48419047122096E-01
 cg2d: Sum(rhs),rhsMax =  -4.58444070082392E-04  1.48413011811776E-01
 cg2d: Sum(rhs),rhsMax =  -4.58842383021783E-04  1.48406961995182E-01
 cg2d: Sum(rhs),rhsMax =  -4.59239713185974E-04  1.48400897676666E-01
 cg2d: Sum(rhs),rhsMax =  -4.59636078677284E-04  1.48394818862796E-01
 cg2d: Sum(rhs),rhsMax =  -4.60031498478590E-04  1.48388725560418E-01
 cg2d: Sum(rhs),rhsMax =  -4.60425987939593E-04  1.48382617776099E-01
 cg2d: Sum(rhs),rhsMax =  -4.60819558348250E-04  1.48376495516062E-01
 cg2d: Sum(rhs),rhsMax =  -4.61212218586343E-04  1.48370358786329E-01
 cg2d: Sum(rhs),rhsMax =  -4.61603977477951E-04  1.48364207592894E-01
 cg2d: Sum(rhs),rhsMax =  -4.61994844433634E-04  1.48358041941851E-01
 cg2d: Sum(rhs),rhsMax =  -4.62384830186661E-04  1.48351861839427E-01
 cg2d: Sum(rhs),rhsMax =  -4.62773945937859E-04  1.48345667291958E-01
 cg2d: Sum(rhs),rhsMax =  -4.63162203062599E-04  1.48339458305835E-01
 cg2d: Sum(rhs),rhsMax =  -4.63549612790489E-04  1.48333234887460E-01
 cg2d: Sum(rhs),rhsMax =  -4.63936186039757E-04  1.48326997043231E-01
 cg2d: Sum(rhs),rhsMax =  -4.64321933555912E-04  1.48320744779546E-01
 cg2d: Sum(rhs),rhsMax =  -4.64706865972812E-04  1.48314478102819E-01
 cg2d: Sum(rhs),rhsMax =  -4.65090994030192E-04  1.48308197019494E-01
 cg2d: Sum(rhs),rhsMax =  -4.65474328444084E-04  1.48301901536057E-01
 cg2d: Sum(rhs),rhsMax =  -4.65856880064921E-04  1.48295591659043E-01
 cg2d: Sum(rhs),rhsMax =  -4.66238659557677E-04  1.48289267395023E-01
 cg2d: Sum(rhs),rhsMax =  -4.66619677645386E-04  1.48282928750612E-01
 cg2d: Sum(rhs),rhsMax =  -4.66999944818737E-04  1.48276575732453E-01
 cg2d: Sum(rhs),rhsMax =  -4.67379471806003E-04  1.48270208347220E-01
 cg2d: Sum(rhs),rhsMax =  -4.67758269129169E-04  1.48263826601620E-01
 cg2d: Sum(rhs),rhsMax =  -4.68136347028712E-04  1.48257430502385E-01
 cg2d: Sum(rhs),rhsMax =  -4.68513716077168E-04  1.48251020056279E-01
 cg2d: Sum(rhs),rhsMax =  -4.68890386460657E-04  1.48244595270097E-01
 cg2d: Sum(rhs),rhsMax =  -4.69266368667726E-04  1.48238156150666E-01
 cg2d: Sum(rhs),rhsMax =  -4.69641672717293E-04  1.48231702704849E-01
 cg2d: Sum(rhs),rhsMax =  -4.70016308900710E-04  1.48225234939538E-01
 cg2d: Sum(rhs),rhsMax =  -4.70390287015290E-04  1.48218752861663E-01
 cg2d: Sum(rhs),rhsMax =  -4.70763617157255E-04  1.48212256478183E-01
 cg2d: Sum(rhs),rhsMax =  -4.71136309273455E-04  1.48205745796092E-01
 cg2d: Sum(rhs),rhsMax =  -4.71508373022144E-04  1.48199220822415E-01
 cg2d: Sum(rhs),rhsMax =  -4.71879818219991E-04  1.48192681564209E-01
 cg2d: Sum(rhs),rhsMax =  -4.72250654468210E-04  1.48186128028565E-01
 cg2d: Sum(rhs),rhsMax =  -4.72620891265236E-04  1.48179560222603E-01
 cg2d: Sum(rhs),rhsMax =  -4.72990538041443E-04  1.48172978153476E-01
 cg2d: Sum(rhs),rhsMax =  -4.73359604132255E-04  1.48166381828371E-01
 cg2d: Sum(rhs),rhsMax =  -4.73728098890083E-04  1.48159771254506E-01
 cg2d: Sum(rhs),rhsMax =  -4.74096031484704E-04  1.48153146439130E-01
 cg2d: Sum(rhs),rhsMax =  -4.74463410822377E-04  1.48146507389527E-01
 cg2d: Sum(rhs),rhsMax =  -4.74830246088450E-04  1.48139854113012E-01
 cg2d: Sum(rhs),rhsMax =  -4.75196545863032E-04  1.48133186616933E-01
 cg2d: Sum(rhs),rhsMax =  -4.75562319166703E-04  1.48126504908668E-01
 cg2d: Sum(rhs),rhsMax =  -4.75927574429432E-04  1.48119808995631E-01
 cg2d: Sum(rhs),rhsMax =  -4.76292320493379E-04  1.48113098885264E-01
 cg2d: Sum(rhs),rhsMax =  -4.76656565613652E-04  1.48106374585043E-01
 cg2d: Sum(rhs),rhsMax =  -4.77020318197826E-04  1.48099636102478E-01
 cg2d: Sum(rhs),rhsMax =  -4.77383586519383E-04  1.48092883445108E-01
 cg2d: Sum(rhs),rhsMax =  -4.77746378735962E-04  1.48086116620506E-01
 cg2d: Sum(rhs),rhsMax =  -4.78108702903368E-04  1.48079335636277E-01
 cg2d: Sum(rhs),rhsMax =  -4.78470567058626E-04  1.48072540500057E-01
 cg2d: Sum(rhs),rhsMax =  -4.78831978989138E-04  1.48065731219515E-01
 cg2d: Sum(rhs),rhsMax =  -4.79192946390980E-04  1.48058907802352E-01
 cg2d: Sum(rhs),rhsMax =  -4.79553477121064E-04  1.48052070256302E-01
 cg2d: Sum(rhs),rhsMax =  -4.79913578568875E-04  1.48045218589129E-01
 cg2d: Sum(rhs),rhsMax =  -4.80273258262645E-04  1.48038352808631E-01
 cg2d: Sum(rhs),rhsMax =  -4.80632523613293E-04  1.48031472922636E-01
 cg2d: Sum(rhs),rhsMax =  -4.80991381944617E-04  1.48024578939007E-01
 cg2d: Sum(rhs),rhsMax =  -4.81349840344908E-04  1.48017670865636E-01
 cg2d: Sum(rhs),rhsMax =  -4.81707905932627E-04  1.48010748710449E-01
 cg2d: Sum(rhs),rhsMax =  -4.82065585763286E-04  1.48003812481403E-01
 cg2d: Sum(rhs),rhsMax =  -4.82422886846609E-04  1.47996862186488E-01
 cg2d: Sum(rhs),rhsMax =  -4.82779815867570E-04  1.47989897833724E-01
 cg2d: Sum(rhs),rhsMax =  -4.83136379659794E-04  1.47982919431164E-01
(PID.TID 0000.0001)      cg2d_init_res =   1.23258580880581E-03
(PID.TID 0000.0001)      cg2d_iters(min,last) =      -1      74
(PID.TID 0000.0001)      cg2d_last_res =   9.79585680152450E-08
(PID.TID 0000.0001) // =======================================================
(PID.TID 0000.0001) // Begin MONITOR dynamic field statistics
(PID.TID 0000.0001) // =======================================================
(PID.TID 0000.0001) %MON time_tsnumber                =                  6048
(PID.TID 0000.0001) %MON time_secondsf                =   7.2576000000000E+06
(PID.TID 0000.0001) %MON dynstat_eta_max              =   5.3279138832587E-02
(PID.TID 0000.0001) %MON dynstat_eta_min              =  -1.9436583920292E-02
(PID.TID 0000.0001) %MON dynstat_eta_mean             =   3.5772631715501E-07
(PID.TID 0000.0001) %MON dynstat_eta_sd               =   1.9146041073603E-02
(PID.TID 0000.0001) %MON dynstat_eta_del2             =   1.8750182061299E-05
(PID.TID 0000.0001) %MON dynstat_uvel_max             =   3.0334282359948E-02
(PID.TID 0000.0001) %MON dynstat_uvel_min             =  -1.6535709891049E-02
(PID.TID 0000.0001) %MON dynstat_uvel_mean            =   9.3228367627426E-08
(PID.TID 0000.0001) %MON dynstat_uvel_sd              =   6.7779047014869E-03
(PID.TID 0000.0001) %MON dynstat_uvel_del2            =   8.1475610241178E-06
(PID.TID 0000.0001) %MON dynstat_vvel_max             =   8.8640266781731E-02
(PID.TID 0000.0001) %MON dynstat_vvel_min             =  -3.4659489294330E-02
(PID.TID 0000.0001) %MON dynstat_vvel_mean            =   5.8393598202875E-09
(PID.TID 0000.0001) %MON dynstat_vvel_sd              =   1.5833457782777E-02
(PID.TID 0000.0001) %MON dynstat_vvel_del2            =   7.6143141204727E-05
(PID.TID 0000.0001) %MON dynstat_wvel_max             =   9.4602495019672E-09
(PID.TID 0000.0001) %MON dynstat_wvel_min             =  -2.0431860685349E-08
(PID.TID 0000.0001) %MON dynstat_wvel_mean            =   1.6828815003262E-21
(PID.TID 0000.0001) %MON dynstat_wvel_sd              =   6.9390827669138E-09
(PID.TID 0000.0001) %MON dynstat_wvel_del2            =   3.0762811955743E-12
(PID.TID 0000.0001) %MON dynstat_theta_max            =   2.0000000000000E+01
(PID.TID 0000.0001) %MON dynstat_theta_min            =   2.0000000000000E+01
(PID.TID 0000.0001) %MON dynstat_theta_mean           =   2.0000000000000E+01
(PID.TID 0000.0001) %MON dynstat_theta_sd             =   0.0000000000000E+00
(PID.TID 0000.0001) %MON dynstat_theta_del2           =   0.0000000000000E+00
(PID.TID 0000.0001) %MON dynstat_salt_max             =   3.0000000000000E+01
(PID.TID 0000.0001) %MON dynstat_salt_min             =   3.0000000000000E+01
(PID.TID 0000.0001) %MON dynstat_salt_mean            =   3.0000000000000E+01
(PID.TID 0000.0001) %MON dynstat_salt_sd              =   0.0000000000000E+00
(PID.TID 0000.0001) %MON dynstat_salt_del2            =   0.0000000000000E+00
(PID.TID 0000.0001) %MON trAdv_CFL_u_max              =   1.8200092089803E-03
(PID.TID 0000.0001) %MON trAdv_CFL_v_max              =   5.3186436188224E-03
(PID.TID 0000.0001) %MON trAdv_CFL_w_max              =   2.2679040761221E-09
(PID.TID 0000.0001) %MON advcfl_uvel_max              =   1.8200569415969E-03
(PID.TID 0000.0001) %MON advcfl_vvel_max              =   5.3184160069038E-03
(PID.TID 0000.0001) %MON advcfl_wvel_max              =   9.8072931289673E-09
(PID.TID 0000.0001) %MON advcfl_W_hf_max              =   0.0000000000000E+00
(PID.TID 0000.0001) %MON pe_b_mean                    =   3.5960604203058E-07
(PID.TID 0000.0001) %MON ke_max                       =   3.9270976503430E-03
(PID.TID 0000.0001) %MON ke_mean                      =   1.4584720227583E-04
(PID.TID 0000.0001) %MON ke_vol                       =   7.2000000000000E+15
(PID.TID 0000.0001) %MON vort_r_min                   =  -1.5886099137856E-06
(PID.TID 0000.0001) %MON vort_r_max                   =   2.4193647114889E-06
(PID.TID 0000.0001) %MON vort_a_mean                  =   1.0600000000000E-04
(PID.TID 0000.0001) %MON vort_a_sd                    =   3.5382135187377E-06
(PID.TID 0000.0001) %MON vort_p_mean                  =   1.1130000000000E-04
(PID.TID 0000.0001) %MON vort_p_sd                    =   4.1151355047015E-05
(PID.TID 0000.0001) %MON surfExpan_theta_mean         =   3.3651738186159E-20
(PID.TID 0000.0001) %MON surfExpan_salt_mean          =   5.0483666629791E-20
(PID.TID 0000.0001) // =======================================================
(PID.TID 0000.0001) // End MONITOR dynamic field statistics
(PID.TID 0000.0001) // =======================================================
 cg2d: Sum(rhs),rhsMax =  -4.83492584836149E-04  1.47975926986894E-01
 cg2d: Sum(rhs),rhsMax =  -4.83848438101276E-04  1.47968920509031E-01
 cg2d: Sum(rhs),rhsMax =  -4.84203945817159E-04  1.47961900005725E-01
 cg2d: Sum(rhs),rhsMax =  -4.84559114567496E-04  1.47954865485154E-01
 cg2d: Sum(rhs),rhsMax =  -4.84913950595056E-04  1.47947816955534E-01
 cg2d: Sum(rhs),rhsMax =  -4.85268460271214E-04  1.47940754425107E-01
 cg2d: Sum(rhs),rhsMax =  -4.85622649771306E-04  1.47933677902151E-01
 cg2d: Sum(rhs),rhsMax =  -4.85976525279466E-04  1.47926587394974E-01
 cg2d: Sum(rhs),rhsMax =  -4.86330092823767E-04  1.47919482911916E-01
 cg2d: Sum(rhs),rhsMax =  -4.86683358345436E-04  1.47912364461349E-01
 cg2d: Sum(rhs),rhsMax =  -4.87036327997748E-04  1.47905232051677E-01
 cg2d: Sum(rhs),rhsMax =  -4.87389007544070E-04  1.47898085691335E-01
 cg2d: Sum(rhs),rhsMax =  -4.87741402815039E-04  1.47890925388790E-01
 cg2d: Sum(rhs),rhsMax =  -4.88093519652363E-04  1.47883751152543E-01
 cg2d: Sum(rhs),rhsMax =  -4.88445363684797E-04  1.47876562991123E-01
 cg2d: Sum(rhs),rhsMax =  -4.88796940637541E-04  1.47869360913094E-01
 cg2d: Sum(rhs),rhsMax =  -4.89148256198432E-04  1.47862144927049E-01
 cg2d: Sum(rhs),rhsMax =  -4.89499315794816E-04  1.47854915041614E-01
 cg2d: Sum(rhs),rhsMax =  -4.89850125114216E-04  1.47847671265447E-01
 cg2d: Sum(rhs),rhsMax =  -4.90200689524261E-04  1.47840413607238E-01
 cg2d: Sum(rhs),rhsMax =  -4.90551014640246E-04  1.47833142075708E-01
 cg2d: Sum(rhs),rhsMax =  -4.90901105728264E-04  1.47825856679608E-01
 cg2d: Sum(rhs),rhsMax =  -4.91250968238047E-04  1.47818557427724E-01
 cg2d: Sum(rhs),rhsMax =  -4.91600607451061E-04  1.47811244328871E-01
 cg2d: Sum(rhs),rhsMax =  -4.91950028775390E-04  1.47803917391897E-01
 cg2d: Sum(rhs),rhsMax =  -4.92299237371529E-04  1.47796576625680E-01
 cg2d: Sum(rhs),rhsMax =  -4.92648238623024E-04  1.47789222039132E-01
 cg2d: Sum(rhs),rhsMax =  -4.92997037654858E-04  1.47781853641195E-01
 cg2d: Sum(rhs),rhsMax =  -4.93345639761195E-04  1.47774471440841E-01
 cg2d: Sum(rhs),rhsMax =  -4.93694050116523E-04  1.47767075447077E-01
 cg2d: Sum(rhs),rhsMax =  -4.94042273891790E-04  1.47759665668940E-01
 cg2d: Sum(rhs),rhsMax =  -4.94337384622612E-04  1.47752242282578E-01
 cg2d: Sum(rhs),rhsMax =  -4.94632170236592E-04  1.47744805014134E-01
 cg2d: Sum(rhs),rhsMax =  -4.94926668722992E-04  1.47737353943894E-01
 cg2d: Sum(rhs),rhsMax =  -4.95220896040384E-04  1.47729889120614E-01
 cg2d: Sum(rhs),rhsMax =  -4.95514867093105E-04  1.47722410558440E-01
 cg2d: Sum(rhs),rhsMax =  -4.95808586684892E-04  1.47714918268301E-01
 cg2d: Sum(rhs),rhsMax =  -4.96102053982664E-04  1.47707412258900E-01
 cg2d: Sum(rhs),rhsMax =  -4.96395268188884E-04  1.47699892538862E-01
 cg2d: Sum(rhs),rhsMax =  -4.96688230083277E-04  1.47692359117085E-01
 cg2d: Sum(rhs),rhsMax =  -4.96980943220412E-04  1.47684812002810E-01
 cg2d: Sum(rhs),rhsMax =  -4.97273412356453E-04  1.47677251205491E-01
 cg2d: Sum(rhs),rhsMax =  -4.97565642481273E-04  1.47669676734662E-01
 cg2d: Sum(rhs),rhsMax =  -4.97857638329284E-04  1.47662088599846E-01
 cg2d: Sum(rhs),rhsMax =  -4.98149403767201E-04  1.47654486810541E-01
 cg2d: Sum(rhs),rhsMax =  -4.98440942513671E-04  1.47646871376228E-01
 cg2d: Sum(rhs),rhsMax =  -4.98732258003182E-04  1.47639242306408E-01
 cg2d: Sum(rhs),rhsMax =  -4.99023353992403E-04  1.47631599610621E-01
 cg2d: Sum(rhs),rhsMax =  -4.99314234252224E-04  1.47623943298456E-01
 cg2d: Sum(rhs),rhsMax =  -4.99604902747586E-04  1.47616273379551E-01
 cg2d: Sum(rhs),rhsMax =  -4.99895363485692E-04  1.47608589863583E-01
 cg2d: Sum(rhs),rhsMax =  -5.00185620441565E-04  1.47600892760262E-01
 cg2d: Sum(rhs),rhsMax =  -5.00475677558880E-04  1.47593182079318E-01
 cg2d: Sum(rhs),rhsMax =  -5.00765538818256E-04  1.47585457830514E-01
 cg2d: Sum(rhs),rhsMax =  -5.01055208076558E-04  1.47577720023632E-01
 cg2d: Sum(rhs),rhsMax =  -5.01344689353304E-04  1.47569968668488E-01
 cg2d: Sum(rhs),rhsMax =  -5.01633986756601E-04  1.47562203774928E-01
 cg2d: Sum(rhs),rhsMax =  -5.01923104156410E-04  1.47554425352830E-01
 cg2d: Sum(rhs),rhsMax =  -5.02212045682291E-04  1.47546633412106E-01
 cg2d: Sum(rhs),rhsMax =  -5.02500815343056E-04  1.47538827962699E-01
 cg2d: Sum(rhs),rhsMax =  -5.02789417195216E-04  1.47531009014584E-01
 cg2d: Sum(rhs),rhsMax =  -5.03077855351967E-04  1.47523176577767E-01
 cg2d: Sum(rhs),rhsMax =  -5.03366133833815E-04  1.47515330662287E-01
 cg2d: Sum(rhs),rhsMax =  -5.03654256891578E-04  1.47507471278209E-01
 cg2d: Sum(rhs),rhsMax =  -5.03942228545289E-04  1.47499598435634E-01
 cg2d: Sum(rhs),rhsMax =  -5.04230052958151E-04  1.47491712144689E-01
 cg2d: Sum(rhs),rhsMax =  -5.04517734366461E-04  1.47483812415532E-01
 cg2d: Sum(rhs),rhsMax =  -5.04805276878253E-04  1.47475899258356E-01
 cg2d: Sum(rhs),rhsMax =  -5.05092684673755E-04  1.47467972683379E-01
 cg2d: Sum(rhs),rhsMax =  -5.05379962092872E-04  1.47460032700856E-01
 cg2d: Sum(rhs),rhsMax =  -5.05667113187391E-04  1.47452079321068E-01
 cg2d: Sum(rhs),rhsMax =  -5.05954142367266E-04  1.47444112554330E-01
(PID.TID 0000.0001)      cg2d_init_res =   1.23409586445768E-03
(PID.TID 0000.0001)      cg2d_iters(min,last) =      -1      75
(PID.TID 0000.0001)      cg2d_last_res =   9.12501093214642E-08
(PID.TID 0000.0001) // =======================================================
(PID.TID 0000.0001) // Begin MONITOR dynamic field statistics
(PID.TID 0000.0001) // =======================================================
(PID.TID 0000.0001) %MON time_tsnumber                =                  6120
(PID.TID 0000.0001) %MON time_secondsf                =   7.3440000000000E+06
(PID.TID 0000.0001) %MON dynstat_eta_max              =   5.3233586559213E-02
(PID.TID 0000.0001) %MON dynstat_eta_min              =  -1.9106004568561E-02
(PID.TID 0000.0001) %MON dynstat_eta_mean             =   3.7319111517045E-07
(PID.TID 0000.0001) %MON dynstat_eta_sd               =   1.8924685165540E-02
(PID.TID 0000.0001) %MON dynstat_eta_del2             =   1.8747772717908E-05
(PID.TID 0000.0001) %MON dynstat_uvel_max             =   3.0384488005795E-02
(PID.TID 0000.0001) %MON dynstat_uvel_min             =  -1.6463352414023E-02
(PID.TID 0000.0001) %MON dynstat_uvel_mean            =   1.2181059160520E-07
(PID.TID 0000.0001) %MON dynstat_uvel_sd              =   6.6945234709558E-03
(PID.TID 0000.0001) %MON dynstat_uvel_del2            =   8.1169562403452E-06
(PID.TID 0000.0001) %MON dynstat_vvel_max             =   8.8345141787260E-02
(PID.TID 0000.0001) %MON dynstat_vvel_min             =  -3.4830268165510E-02
(PID.TID 0000.0001) %MON dynstat_vvel_mean            =   5.9041684211304E-09
(PID.TID 0000.0001) %MON dynstat_vvel_sd              =   1.5796994554264E-02
(PID.TID 0000.0001) %MON dynstat_vvel_del2            =   7.6169081829357E-05
(PID.TID 0000.0001) %MON dynstat_wvel_max             =   1.0175774978852E-08
(PID.TID 0000.0001) %MON dynstat_wvel_min             =  -2.0281325852266E-08
(PID.TID 0000.0001) %MON dynstat_wvel_mean            =   8.9754596249097E-22
(PID.TID 0000.0001) %MON dynstat_wvel_sd              =   6.9289999305972E-09
(PID.TID 0000.0001) %MON dynstat_wvel_del2            =   3.0537112866805E-12
(PID.TID 0000.0001) %MON dynstat_theta_max            =   2.0000000000000E+01
(PID.TID 0000.0001) %MON dynstat_theta_min            =   2.0000000000000E+01
(PID.TID 0000.0001) %MON dynstat_theta_mean           =   2.0000000000000E+01
(PID.TID 0000.0001) %MON dynstat_theta_sd             =   0.0000000000000E+00
(PID.TID 0000.0001) %MON dynstat_theta_del2           =   0.0000000000000E+00
(PID.TID 0000.0001) %MON dynstat_salt_max             =   3.0000000000000E+01
(PID.TID 0000.0001) %MON dynstat_salt_min             =   3.0000000000000E+01
(PID.TID 0000.0001) %MON dynstat_salt_mean            =   3.0000000000000E+01
(PID.TID 0000.0001) %MON dynstat_salt_sd              =   0.0000000000000E+00
(PID.TID 0000.0001) %MON dynstat_salt_del2            =   0.0000000000000E+00
(PID.TID 0000.0001) %MON trAdv_CFL_u_max              =   1.8230331527066E-03
(PID.TID 0000.0001) %MON trAdv_CFL_v_max              =   5.3009720631497E-03
(PID.TID 0000.0001) %MON trAdv_CFL_w_max              =   2.4394888855270E-09
(PID.TID 0000.0001) %MON advcfl_uvel_max              =   1.8230692803477E-03
(PID.TID 0000.0001) %MON advcfl_vvel_max              =   5.3007085072356E-03
(PID.TID 0000.0001) %MON advcfl_wvel_max              =   9.7350364090875E-09
(PID.TID 0000.0001) %MON advcfl_W_hf_max              =   0.0000000000000E+00
(PID.TID 0000.0001) %MON pe_b_mean                    =   3.5133897828775E-07
(PID.TID 0000.0001) %MON ke_max                       =   3.8994926086360E-03
(PID.TID 0000.0001) %MON ke_mean                      =   1.4472782672054E-04
(PID.TID 0000.0001) %MON ke_vol                       =   7.2000000000000E+15
(PID.TID 0000.0001) %MON vort_r_min                   =  -1.5901276700997E-06
(PID.TID 0000.0001) %MON vort_r_max                   =   2.4087639477249E-06
(PID.TID 0000.0001) %MON vort_a_mean                  =   1.0600000000000E-04
(PID.TID 0000.0001) %MON vort_a_sd                    =   3.5381751874437E-06
(PID.TID 0000.0001) %MON vort_p_mean                  =   1.1130000000000E-04
(PID.TID 0000.0001) %MON vort_p_sd                    =   4.1151260470897E-05
(PID.TID 0000.0001) %MON surfExpan_theta_mean         =   1.7945467334357E-20
(PID.TID 0000.0001) %MON surfExpan_salt_mean          =   2.6919464188621E-20
(PID.TID 0000.0001) // =======================================================
(PID.TID 0000.0001) // End MONITOR dynamic field statistics
(PID.TID 0000.0001) // =======================================================
 cg2d: Sum(rhs),rhsMax =  -5.06241053748693E-04  1.47436132410987E-01
 cg2d: Sum(rhs),rhsMax =  -5.06527851711725E-04  1.47428138901412E-01
 cg2d: Sum(rhs),rhsMax =  -5.06814540496469E-04  1.47420132036014E-01
 cg2d: Sum(rhs),rhsMax =  -5.07101124428948E-04  1.47412111825228E-01
 cg2d: Sum(rhs),rhsMax =  -5.07387607748341E-04  1.47404078279523E-01
 cg2d: Sum(rhs),rhsMax =  -5.07673994843335E-04  1.47396031409397E-01
 cg2d: Sum(rhs),rhsMax =  -5.07960290037091E-04  1.47387971225376E-01
 cg2d: Sum(rhs),rhsMax =  -5.08246497692833E-04  1.47379897738022E-01
 cg2d: Sum(rhs),rhsMax =  -5.08532622094387E-04  1.47371810957923E-01
 cg2d: Sum(rhs),rhsMax =  -5.08818667798380E-04  1.47363710895702E-01
 cg2d: Sum(rhs),rhsMax =  -5.09104639094019E-04  1.47355597562008E-01
 cg2d: Sum(rhs),rhsMax =  -5.09390540357841E-04  1.47347470967524E-01
 cg2d: Sum(rhs),rhsMax =  -5.09676376057784E-04  1.47339331122961E-01
 cg2d: Sum(rhs),rhsMax =  -5.09962150548525E-04  1.47331178039063E-01
 cg2d: Sum(rhs),rhsMax =  -5.10247868261161E-04  1.47323011726603E-01
 cg2d: Sum(rhs),rhsMax =  -5.10533533669887E-04  1.47314832196383E-01
 cg2d: Sum(rhs),rhsMax =  -5.10819151125040E-04  1.47306639459239E-01
 cg2d: Sum(rhs),rhsMax =  -5.11104725279207E-04  1.47298433526035E-01
 cg2d: Sum(rhs),rhsMax =  -5.11390260346299E-04  1.47290214407665E-01
 cg2d: Sum(rhs),rhsMax =  -5.11675760914862E-04  1.47281982115055E-01
 cg2d: Sum(rhs),rhsMax =  -5.11961231437352E-04  1.47273736659161E-01
 cg2d: Sum(rhs),rhsMax =  -5.12246676346069E-04  1.47265478050968E-01
 cg2d: Sum(rhs),rhsMax =  -5.12532100135368E-04  1.47257206301493E-01
 cg2d: Sum(rhs),rhsMax =  -5.12817507349091E-04  1.47248921421783E-01
 cg2d: Sum(rhs),rhsMax =  -5.13102902419097E-04  1.47240623422914E-01
 cg2d: Sum(rhs),rhsMax =  -5.13388289863357E-04  1.47232312315992E-01
 cg2d: Sum(rhs),rhsMax =  -5.13673674116954E-04  1.47223988112158E-01
 cg2d: Sum(rhs),rhsMax =  -5.13959059691927E-04  1.47215650822576E-01
 cg2d: Sum(rhs),rhsMax =  -5.14244451028909E-04  1.47207300458446E-01
 cg2d: Sum(rhs),rhsMax =  -5.14529852666454E-04  1.47198937030994E-01
 cg2d: Sum(rhs),rhsMax =  -5.14815269084210E-04  1.47190560551480E-01
 cg2d: Sum(rhs),rhsMax =  -5.15100704824518E-04  1.47182171031190E-01
 cg2d: Sum(rhs),rhsMax =  -5.15386164221521E-04  1.47173768481444E-01
 cg2d: Sum(rhs),rhsMax =  -5.15671651884877E-04  1.47165352913590E-01
 cg2d: Sum(rhs),rhsMax =  -5.15957172260662E-04  1.47156924339006E-01
 cg2d: Sum(rhs),rhsMax =  -5.16242729847753E-04  1.47148482769101E-01
 cg2d: Sum(rhs),rhsMax =  -5.16528329009329E-04  1.47140028215312E-01
 cg2d: Sum(rhs),rhsMax =  -5.16813974319745E-04  1.47131560689109E-01
 cg2d: Sum(rhs),rhsMax =  -5.17099670291741E-04  1.47123080201990E-01
 cg2d: Sum(rhs),rhsMax =  -5.17385421167442E-04  1.47114586765483E-01
 cg2d: Sum(rhs),rhsMax =  -5.17671231591081E-04  1.47106080391147E-01
 cg2d: Sum(rhs),rhsMax =  -5.17957105933952E-04  1.47097561090569E-01
 cg2d: Sum(rhs),rhsMax =  -5.18243048683758E-04  1.47089028875368E-01
 cg2d: Sum(rhs),rhsMax =  -5.18529064119666E-04  1.47080483757191E-01
 cg2d: Sum(rhs),rhsMax =  -5.18815156821693E-04  1.47071925747716E-01
 cg2d: Sum(rhs),rhsMax =  -5.19101331041768E-04  1.47063354858651E-01
 cg2d: Sum(rhs),rhsMax =  -5.19387591329543E-04  1.47054771101733E-01
 cg2d: Sum(rhs),rhsMax =  -5.19673941992389E-04  1.47046174488729E-01
 cg2d: Sum(rhs),rhsMax =  -5.19960387446490E-04  1.47037565031436E-01
 cg2d: Sum(rhs),rhsMax =  -5.20246932005235E-04  1.47028942741680E-01
 cg2d: Sum(rhs),rhsMax =  -5.20533580082395E-04  1.47020307631317E-01
 cg2d: Sum(rhs),rhsMax =  -5.20820335945940E-04  1.47011659712235E-01
 cg2d: Sum(rhs),rhsMax =  -5.21107203941783E-04  1.47002998996346E-01
 cg2d: Sum(rhs),rhsMax =  -5.21394188432617E-04  1.46994325495598E-01
 cg2d: Sum(rhs),rhsMax =  -5.21681293669600E-04  1.46985639221964E-01
 cg2d: Sum(rhs),rhsMax =  -5.21968524006792E-04  1.46976940187449E-01
 cg2d: Sum(rhs),rhsMax =  -5.22255883558395E-04  1.46968228404086E-01
 cg2d: Sum(rhs),rhsMax =  -5.22543376752138E-04  1.46959503883940E-01
 cg2d: Sum(rhs),rhsMax =  -5.22831007818640E-04  1.46950766639102E-01
 cg2d: Sum(rhs),rhsMax =  -5.23118780951625E-04  1.46942016681696E-01
 cg2d: Sum(rhs),rhsMax =  -5.23406700375732E-04  1.46933254023872E-01
 cg2d: Sum(rhs),rhsMax =  -5.23694770202465E-04  1.46924478677812E-01
 cg2d: Sum(rhs),rhsMax =  -5.23982994732019E-04  1.46915690655727E-01
 cg2d: Sum(rhs),rhsMax =  -5.24271378052815E-04  1.46906889969856E-01
 cg2d: Sum(rhs),rhsMax =  -5.24559924279174E-04  1.46898076632469E-01
 cg2d: Sum(rhs),rhsMax =  -5.24848637700570E-04  1.46889250655864E-01
 cg2d: Sum(rhs),rhsMax =  -5.25137522246224E-04  1.46880412052369E-01
 cg2d: Sum(rhs),rhsMax =  -5.25426582103878E-04  1.46871560834343E-01
 cg2d: Sum(rhs),rhsMax =  -5.25715821306024E-04  1.46862697014169E-01
 cg2d: Sum(rhs),rhsMax =  -5.26005243977893E-04  1.46853820604266E-01
 cg2d: Sum(rhs),rhsMax =  -5.26233755904775E-04  1.46844931319509E-01
 cg2d: Sum(rhs),rhsMax =  -5.26462243177964E-04  1.46836029789530E-01
(PID.TID 0000.0001)      cg2d_init_res =   1.23603154349632E-03
(PID.TID 0000.0001)      cg2d_iters(min,last) =      -1      76
(PID.TID 0000.0001)      cg2d_last_res =   9.45837205773387E-08
(PID.TID 0000.0001) // =======================================================
(PID.TID 0000.0001) // Begin MONITOR dynamic field statistics
(PID.TID 0000.0001) // =======================================================
(PID.TID 0000.0001) %MON time_tsnumber                =                  6192
(PID.TID 0000.0001) %MON time_secondsf                =   7.4304000000000E+06
(PID.TID 0000.0001) %MON dynstat_eta_max              =   5.3129362595433E-02
(PID.TID 0000.0001) %MON dynstat_eta_min              =  -1.8796552957680E-02
(PID.TID 0000.0001) %MON dynstat_eta_mean             =   3.8666236442265E-07
(PID.TID 0000.0001) %MON dynstat_eta_sd               =   1.8679509283550E-02
(PID.TID 0000.0001) %MON dynstat_eta_del2             =   1.8741849853655E-05
(PID.TID 0000.0001) %MON dynstat_uvel_max             =   3.0420879543952E-02
(PID.TID 0000.0001) %MON dynstat_uvel_min             =  -1.6366342148948E-02
(PID.TID 0000.0001) %MON dynstat_uvel_mean            =   1.4879032480608E-07
(PID.TID 0000.0001) %MON dynstat_uvel_sd              =   6.6101513529545E-03
(PID.TID 0000.0001) %MON dynstat_uvel_del2            =   8.0851686222756E-06
(PID.TID 0000.0001) %MON dynstat_vvel_max             =   8.8007728261760E-02
(PID.TID 0000.0001) %MON dynstat_vvel_min             =  -3.5014575137262E-02
(PID.TID 0000.0001) %MON dynstat_vvel_mean            =   5.8205210714576E-09
(PID.TID 0000.0001) %MON dynstat_vvel_sd              =   1.5755217086321E-02
(PID.TID 0000.0001) %MON dynstat_vvel_del2            =   7.6170321427079E-05
(PID.TID 0000.0001) %MON dynstat_wvel_max             =   1.0912713668040E-08
(PID.TID 0000.0001) %MON dynstat_wvel_min             =  -1.9999922983698E-08
(PID.TID 0000.0001) %MON dynstat_wvel_mean            =   3.8527237696447E-21
(PID.TID 0000.0001) %MON dynstat_wvel_sd              =   6.9213374941313E-09
(PID.TID 0000.0001) %MON dynstat_wvel_del2            =   3.0351178542643E-12
(PID.TID 0000.0001) %MON dynstat_theta_max            =   2.0000000000000E+01
(PID.TID 0000.0001) %MON dynstat_theta_min            =   2.0000000000000E+01
(PID.TID 0000.0001) %MON dynstat_theta_mean           =   2.0000000000000E+01
(PID.TID 0000.0001) %MON dynstat_theta_sd             =   0.0000000000000E+00
(PID.TID 0000.0001) %MON dynstat_theta_del2           =   0.0000000000000E+00
(PID.TID 0000.0001) %MON dynstat_salt_max             =   3.0000000000000E+01
(PID.TID 0000.0001) %MON dynstat_salt_min             =   3.0000000000000E+01
(PID.TID 0000.0001) %MON dynstat_salt_mean            =   3.0000000000000E+01
(PID.TID 0000.0001) %MON dynstat_salt_sd              =   0.0000000000000E+00
(PID.TID 0000.0001) %MON dynstat_salt_del2            =   0.0000000000000E+00
(PID.TID 0000.0001) %MON trAdv_CFL_u_max              =   1.8252280436768E-03
(PID.TID 0000.0001) %MON trAdv_CFL_v_max              =   5.2807617394767E-03
(PID.TID 0000.0001) %MON trAdv_CFL_w_max              =   2.6167625668750E-09
(PID.TID 0000.0001) %MON advcfl_uvel_max              =   1.8252527726371E-03
(PID.TID 0000.0001) %MON advcfl_vvel_max              =   5.2804636957056E-03
(PID.TID 0000.0001) %MON advcfl_wvel_max              =   9.5999630321749E-09
(PID.TID 0000.0001) %MON advcfl_W_hf_max              =   0.0000000000000E+00
(PID.TID 0000.0001) %MON pe_b_mean                    =   3.4229450994650E-07
(PID.TID 0000.0001) %MON ke_max                       =   3.8683317793591E-03
(PID.TID 0000.0001) %MON ke_mean                      =   1.4352780846439E-04
(PID.TID 0000.0001) %MON ke_vol                       =   7.2000000000000E+15
(PID.TID 0000.0001) %MON vort_r_min                   =  -1.5909919125190E-06
(PID.TID 0000.0001) %MON vort_r_max                   =   2.3969841850752E-06
(PID.TID 0000.0001) %MON vort_a_mean                  =   1.0600000000000E-04
(PID.TID 0000.0001) %MON vort_a_sd                    =   3.5381256185966E-06
(PID.TID 0000.0001) %MON vort_p_mean                  =   1.1130000000000E-04
(PID.TID 0000.0001) %MON vort_p_sd                    =   4.1151173170187E-05
(PID.TID 0000.0001) %MON surfExpan_theta_mean         =   7.7056938607711E-20
(PID.TID 0000.0001) %MON surfExpan_salt_mean          =   1.1558825008251E-19
(PID.TID 0000.0001) // =======================================================
(PID.TID 0000.0001) // End MONITOR dynamic field statistics
(PID.TID 0000.0001) // =======================================================
 cg2d: Sum(rhs),rhsMax =  -5.26690676411620E-04  1.46827115691430E-01
 cg2d: Sum(rhs),rhsMax =  -5.26919082863646E-04  1.46818189046637E-01
 cg2d: Sum(rhs),rhsMax =  -5.27147471465660E-04  1.46809249875616E-01
 cg2d: Sum(rhs),rhsMax =  -5.27375845230351E-04  1.46800298191568E-01
 cg2d: Sum(rhs),rhsMax =  -5.27604204574156E-04  1.46791334006386E-01
 cg2d: Sum(rhs),rhsMax =  -5.27832549624378E-04  1.46782357332069E-01
 cg2d: Sum(rhs),rhsMax =  -5.28060881374377E-04  1.46773368180969E-01
 cg2d: Sum(rhs),rhsMax =  -5.28289202571809E-04  1.46764366565734E-01
 cg2d: Sum(rhs),rhsMax =  -5.28517516394713E-04  1.46755352499163E-01
 cg2d: Sum(rhs),rhsMax =  -5.28745826257984E-04  1.46746325994103E-01
 cg2d: Sum(rhs),rhsMax =  -5.28974135160970E-04  1.46737287063402E-01
 cg2d: Sum(rhs),rhsMax =  -5.29202445853355E-04  1.46728235719897E-01
 cg2d: Sum(rhs),rhsMax =  -5.29430760958304E-04  1.46719171976423E-01
 cg2d: Sum(rhs),rhsMax =  -5.29659082928202E-04  1.46710095845837E-01
 cg2d: Sum(rhs),rhsMax =  -5.29887414240854E-04  1.46701007341030E-01
 cg2d: Sum(rhs),rhsMax =  -5.30115757534466E-04  1.46691906474934E-01
 cg2d: Sum(rhs),rhsMax =  -5.30344115510722E-04  1.46682793260519E-01
 cg2d: Sum(rhs),rhsMax =  -5.30572490694267E-04  1.46673667710790E-01
 cg2d: Sum(rhs),rhsMax =  -5.30800885852015E-04  1.46664529838778E-01
 cg2d: Sum(rhs),rhsMax =  -5.31029303490635E-04  1.46655379657539E-01
 cg2d: Sum(rhs),rhsMax =  -5.31257746269764E-04  1.46646217180154E-01
 cg2d: Sum(rhs),rhsMax =  -5.31486216631571E-04  1.46637042419731E-01
 cg2d: Sum(rhs),rhsMax =  -5.31714717171602E-04  1.46627855389403E-01
 cg2d: Sum(rhs),rhsMax =  -5.31943250482701E-04  1.46618656102335E-01
 cg2d: Sum(rhs),rhsMax =  -5.32171819051536E-04  1.46609444571721E-01
 cg2d: Sum(rhs),rhsMax =  -5.32400425347994E-04  1.46600220810785E-01
 cg2d: Sum(rhs),rhsMax =  -5.32629072036515E-04  1.46590984832778E-01
 cg2d: Sum(rhs),rhsMax =  -5.32857761513072E-04  1.46581736650982E-01
 cg2d: Sum(rhs),rhsMax =  -5.33086496321308E-04  1.46572476278708E-01
 cg2d: Sum(rhs),rhsMax =  -5.33315278868783E-04  1.46563203729293E-01
 cg2d: Sum(rhs),rhsMax =  -5.33544111755531E-04  1.46553919016102E-01
 cg2d: Sum(rhs),rhsMax =  -5.33772997343589E-04  1.46544622152529E-01
 cg2d: Sum(rhs),rhsMax =  -5.34001938149051E-04  1.46535313151998E-01
 cg2d: Sum(rhs),rhsMax =  -5.34230936678864E-04  1.46525992027956E-01
 cg2d: Sum(rhs),rhsMax =  -5.34459995258203E-04  1.46516658793884E-01
 cg2d: Sum(rhs),rhsMax =  -5.34689116396323E-04  1.46507313463287E-01
 cg2d: Sum(rhs),rhsMax =  -5.34918302416827E-04  1.46497956049701E-01
 cg2d: Sum(rhs),rhsMax =  -5.35147555866083E-04  1.46488586566689E-01
 cg2d: Sum(rhs),rhsMax =  -5.35376879128992E-04  1.46479205027844E-01
 cg2d: Sum(rhs),rhsMax =  -5.35606274466146E-04  1.46469811446783E-01
 cg2d: Sum(rhs),rhsMax =  -5.35835744391031E-04  1.46460405837156E-01
 cg2d: Sum(rhs),rhsMax =  -5.36065291253992E-04  1.46450988212637E-01
 cg2d: Sum(rhs),rhsMax =  -5.36294917439180E-04  1.46441558586931E-01
 cg2d: Sum(rhs),rhsMax =  -5.36524625343951E-04  1.46432116973769E-01
 cg2d: Sum(rhs),rhsMax =  -5.36697197380371E-04  1.46422663327340E-01
 cg2d: Sum(rhs),rhsMax =  -5.36869617446243E-04  1.46413197796736E-01
 cg2d: Sum(rhs),rhsMax =  -5.37041950020911E-04  1.46403720305209E-01
 cg2d: Sum(rhs),rhsMax =  -5.37214184908029E-04  1.46394230879525E-01
 cg2d: Sum(rhs),rhsMax =  -5.37386327898718E-04  1.46384729535359E-01
 cg2d: Sum(rhs),rhsMax =  -5.37558381074242E-04  1.46375216288522E-01
 cg2d: Sum(rhs),rhsMax =  -5.37730344633940E-04  1.46365691151870E-01
 cg2d: Sum(rhs),rhsMax =  -5.37902218718436E-04  1.46356154138784E-01
 cg2d: Sum(rhs),rhsMax =  -5.38074004253559E-04  1.46346605262974E-01
 cg2d: Sum(rhs),rhsMax =  -5.38245702820231E-04  1.46337044538426E-01
 cg2d: Sum(rhs),rhsMax =  -5.38417316744083E-04  1.46327471979238E-01
 cg2d: Sum(rhs),rhsMax =  -5.38588848178078E-04  1.46317887599544E-01
 cg2d: Sum(rhs),rhsMax =  -5.38760299369862E-04  1.46308291413478E-01
 cg2d: Sum(rhs),rhsMax =  -5.38931672033863E-04  1.46298683435170E-01
 cg2d: Sum(rhs),rhsMax =  -5.39102968154704E-04  1.46289063678758E-01
 cg2d: Sum(rhs),rhsMax =  -5.39274189383690E-04  1.46279432158396E-01
 cg2d: Sum(rhs),rhsMax =  -5.39445337452999E-04  1.46269788888273E-01
 cg2d: Sum(rhs),rhsMax =  -5.39616414232061E-04  1.46260133882616E-01
 cg2d: Sum(rhs),rhsMax =  -5.39787421550380E-04  1.46250467155685E-01
 cg2d: Sum(rhs),rhsMax =  -5.39958361386048E-04  1.46240788721774E-01
 cg2d: Sum(rhs),rhsMax =  -5.40129235522263E-04  1.46231098595203E-01
 cg2d: Sum(rhs),rhsMax =  -5.40300045882656E-04  1.46221396790314E-01
 cg2d: Sum(rhs),rhsMax =  -5.40470794323277E-04  1.46211683321476E-01
 cg2d: Sum(rhs),rhsMax =  -5.40641482688909E-04  1.46201958203079E-01
 cg2d: Sum(rhs),rhsMax =  -5.40812112863448E-04  1.46192221449543E-01
 cg2d: Sum(rhs),rhsMax =  -5.40982686785910E-04  1.46182473075315E-01
 cg2d: Sum(rhs),rhsMax =  -5.41153206205244E-04  1.46172713094871E-01
 cg2d: Sum(rhs),rhsMax =  -5.41323673075529E-04  1.46162941522713E-01
(PID.TID 0000.0001)      cg2d_init_res =   1.23825268601299E-03
(PID.TID 0000.0001)      cg2d_iters(min,last) =      -1      77
(PID.TID 0000.0001)      cg2d_last_res =   8.77381611960203E-08
(PID.TID 0000.0001) // =======================================================
(PID.TID 0000.0001) // Begin MONITOR dynamic field statistics
(PID.TID 0000.0001) // =======================================================
(PID.TID 0000.0001) %MON time_tsnumber                =                  6264
(PID.TID 0000.0001) %MON time_secondsf                =   7.5168000000000E+06
(PID.TID 0000.0001) %MON dynstat_eta_max              =   5.2963944766461E-02
(PID.TID 0000.0001) %MON dynstat_eta_min              =  -1.8512886756060E-02
(PID.TID 0000.0001) %MON dynstat_eta_mean             =   3.9570535692086E-07
(PID.TID 0000.0001) %MON dynstat_eta_sd               =   1.8413025907398E-02
(PID.TID 0000.0001) %MON dynstat_eta_del2             =   1.8732372684871E-05
(PID.TID 0000.0001) %MON dynstat_uvel_max             =   3.0443786977632E-02
(PID.TID 0000.0001) %MON dynstat_uvel_min             =  -1.6270596050099E-02
(PID.TID 0000.0001) %MON dynstat_uvel_mean            =   1.7379784288379E-07
(PID.TID 0000.0001) %MON dynstat_uvel_sd              =   6.5258461679477E-03
(PID.TID 0000.0001) %MON dynstat_uvel_del2            =   8.0524649333764E-06
(PID.TID 0000.0001) %MON dynstat_vvel_max             =   8.7630023406253E-02
(PID.TID 0000.0001) %MON dynstat_vvel_min             =  -3.5217510126597E-02
(PID.TID 0000.0001) %MON dynstat_vvel_mean            =   5.5923576019888E-09
(PID.TID 0000.0001) %MON dynstat_vvel_sd              =   1.5708378698738E-02
(PID.TID 0000.0001) %MON dynstat_vvel_del2            =   7.6146975818839E-05
(PID.TID 0000.0001) %MON dynstat_wvel_max             =   1.1662467587848E-08
(PID.TID 0000.0001) %MON dynstat_wvel_min             =  -1.9654325128649E-08
(PID.TID 0000.0001) %MON dynstat_wvel_mean            =  -2.5957089949063E-21
(PID.TID 0000.0001) %MON dynstat_wvel_sd              =   6.9154254469866E-09
(PID.TID 0000.0001) %MON dynstat_wvel_del2            =   3.0172579981767E-12
(PID.TID 0000.0001) %MON dynstat_theta_max            =   2.0000000000000E+01
(PID.TID 0000.0001) %MON dynstat_theta_min            =   2.0000000000000E+01
(PID.TID 0000.0001) %MON dynstat_theta_mean           =   2.0000000000000E+01
(PID.TID 0000.0001) %MON dynstat_theta_sd             =   0.0000000000000E+00
(PID.TID 0000.0001) %MON dynstat_theta_del2           =   0.0000000000000E+00
(PID.TID 0000.0001) %MON dynstat_salt_max             =   3.0000000000000E+01
(PID.TID 0000.0001) %MON dynstat_salt_min             =   3.0000000000000E+01
(PID.TID 0000.0001) %MON dynstat_salt_mean            =   3.0000000000000E+01
(PID.TID 0000.0001) %MON dynstat_salt_sd              =   0.0000000000000E+00
(PID.TID 0000.0001) %MON dynstat_salt_del2            =   0.0000000000000E+00
(PID.TID 0000.0001) %MON trAdv_CFL_u_max              =   1.8266135469376E-03
(PID.TID 0000.0001) %MON trAdv_CFL_v_max              =   5.2581320716442E-03
(PID.TID 0000.0001) %MON trAdv_CFL_w_max              =   2.7965877564187E-09
(PID.TID 0000.0001) %MON advcfl_uvel_max              =   1.8266272186579E-03
(PID.TID 0000.0001) %MON advcfl_vvel_max              =   5.2578014043752E-03
(PID.TID 0000.0001) %MON advcfl_wvel_max              =   9.4340760617517E-09
(PID.TID 0000.0001) %MON advcfl_W_hf_max              =   0.0000000000000E+00
(PID.TID 0000.0001) %MON pe_b_mean                    =   3.3259777228187E-07
(PID.TID 0000.0001) %MON ke_max                       =   3.8338384680895E-03
(PID.TID 0000.0001) %MON ke_mean                      =   1.4225874954396E-04
(PID.TID 0000.0001) %MON ke_vol                       =   7.2000000000000E+15
(PID.TID 0000.0001) %MON vort_r_min                   =  -1.5912015798592E-06
(PID.TID 0000.0001) %MON vort_r_max                   =   2.3841180868629E-06
(PID.TID 0000.0001) %MON vort_a_mean                  =   1.0600000000000E-04
(PID.TID 0000.0001) %MON vort_a_sd                    =   3.5380652498580E-06
(PID.TID 0000.0001) %MON vort_p_mean                  =   1.1130000000000E-04
(PID.TID 0000.0001) %MON vort_p_sd                    =   4.1151094506036E-05
(PID.TID 0000.0001) %MON surfExpan_theta_mean         =  -5.1926147332577E-20
(PID.TID 0000.0001) %MON surfExpan_salt_mean          =  -7.7886220929536E-20
(PID.TID 0000.0001) // =======================================================
(PID.TID 0000.0001) // End MONITOR dynamic field statistics
(PID.TID 0000.0001) // =======================================================
 cg2d: Sum(rhs),rhsMax =  -5.41494089262085E-04  1.46153158373374E-01
 cg2d: Sum(rhs),rhsMax =  -5.41664456624623E-04  1.46143363661410E-01
 cg2d: Sum(rhs),rhsMax =  -5.41834777160527E-04  1.46133557401408E-01
 cg2d: Sum(rhs),rhsMax =  -5.42005052623329E-04  1.46123739607979E-01
 cg2d: Sum(rhs),rhsMax =  -5.42175285093994E-04  1.46113910295762E-01
 cg2d: Sum(rhs),rhsMax =  -5.42345476324614E-04  1.46104069479424E-01
 cg2d: Sum(rhs),rhsMax =  -5.42515628240751E-04  1.46094217173656E-01
 cg2d: Sum(rhs),rhsMax =  -5.42685742866361E-04  1.46084353393177E-01
 cg2d: Sum(rhs),rhsMax =  -5.42855822097518E-04  1.46074478152733E-01
 cg2d: Sum(rhs),rhsMax =  -5.43025867666239E-04  1.46064591467099E-01
 cg2d: Sum(rhs),rhsMax =  -5.43195881741911E-04  1.46054693351073E-01
 cg2d: Sum(rhs),rhsMax =  -5.43365866137577E-04  1.46044783819482E-01
 cg2d: Sum(rhs),rhsMax =  -5.43535822849725E-04  1.46034862887182E-01
 cg2d: Sum(rhs),rhsMax =  -5.43705753733296E-04  1.46024930569050E-01
 cg2d: Sum(rhs),rhsMax =  -5.43875660847556E-04  1.46014986879995E-01
 cg2d: Sum(rhs),rhsMax =  -5.44045546079879E-04  1.46005031834950E-01
 cg2d: Sum(rhs),rhsMax =  -5.44215411374837E-04  1.45995065448876E-01
 cg2d: Sum(rhs),rhsMax =  -5.44385258808099E-04  1.45985087736759E-01
 cg2d: Sum(rhs),rhsMax =  -5.44555090215761E-04  1.45975098713612E-01
 cg2d: Sum(rhs),rhsMax =  -5.44724907597404E-04  1.45965098394476E-01
 cg2d: Sum(rhs),rhsMax =  -5.44894713057045E-04  1.45955086794417E-01
 cg2d: Sum(rhs),rhsMax =  -5.45064508496214E-04  1.45945063928528E-01
 cg2d: Sum(rhs),rhsMax =  -5.45234295894247E-04  1.45935029811928E-01
 cg2d: Sum(rhs),rhsMax =  -5.45404077286322E-04  1.45924984459762E-01
 cg2d: Sum(rhs),rhsMax =  -5.45573854676651E-04  1.45914927887203E-01
 cg2d: Sum(rhs),rhsMax =  -5.45743629969001E-04  1.45904860109450E-01
 cg2d: Sum(rhs),rhsMax =  -5.45913405381836E-04  1.45894781141726E-01
 cg2d: Sum(rhs),rhsMax =  -5.46083182914964E-04  1.45884690999284E-01
 cg2d: Sum(rhs),rhsMax =  -5.46252964461131E-04  1.45874589697400E-01
 cg2d: Sum(rhs),rhsMax =  -5.46422752178149E-04  1.45864477251377E-01
 cg2d: Sum(rhs),rhsMax =  -5.46592548064813E-04  1.45854353676545E-01
 cg2d: Sum(rhs),rhsMax =  -5.46762354298627E-04  1.45844218988260E-01
 cg2d: Sum(rhs),rhsMax =  -5.46932172894183E-04  1.45834073201905E-01
 cg2d: Sum(rhs),rhsMax =  -5.47102005869502E-04  1.45823916332885E-01
 cg2d: Sum(rhs),rhsMax =  -5.47271855322415E-04  1.45813748396636E-01
 cg2d: Sum(rhs),rhsMax =  -5.47441723342289E-04  1.45803569408618E-01
 cg2d: Sum(rhs),rhsMax =  -5.47611612033633E-04  1.45793379384316E-01
 cg2d: Sum(rhs),rhsMax =  -5.47781523490587E-04  1.45783178339243E-01
 cg2d: Sum(rhs),rhsMax =  -5.47951459907915E-04  1.45772966288935E-01
 cg2d: Sum(rhs),rhsMax =  -5.48121423340841E-04  1.45762743248957E-01
 cg2d: Sum(rhs),rhsMax =  -5.48291415965682E-04  1.45752509234898E-01
 cg2d: Sum(rhs),rhsMax =  -5.48461439891667E-04  1.45742264262374E-01
 cg2d: Sum(rhs),rhsMax =  -5.48631497274410E-04  1.45732008347025E-01
 cg2d: Sum(rhs),rhsMax =  -5.48801590279100E-04  1.45721741504518E-01
 cg2d: Sum(rhs),rhsMax =  -5.48971721007651E-04  1.45711463750546E-01
 cg2d: Sum(rhs),rhsMax =  -5.49141891700032E-04  1.45701175100826E-01
 cg2d: Sum(rhs),rhsMax =  -5.49312104584380E-04  1.45690875571104E-01
 cg2d: Sum(rhs),rhsMax =  -5.49482361727857E-04  1.45680565177148E-01
 cg2d: Sum(rhs),rhsMax =  -5.49652665484005E-04  1.45670243934753E-01
 cg2d: Sum(rhs),rhsMax =  -5.49823018020576E-04  1.45659911859738E-01
 cg2d: Sum(rhs),rhsMax =  -5.49993421484996E-04  1.45649568967952E-01
 cg2d: Sum(rhs),rhsMax =  -5.50163878139810E-04  1.45639215275264E-01
 cg2d: Sum(rhs),rhsMax =  -5.50334390316459E-04  1.45628850797573E-01
 cg2d: Sum(rhs),rhsMax =  -5.50504960238625E-04  1.45618475550800E-01
 cg2d: Sum(rhs),rhsMax =  -5.50675590146227E-04  1.45608089550893E-01
 cg2d: Sum(rhs),rhsMax =  -5.50846282247855E-04  1.45597692813824E-01
 cg2d: Sum(rhs),rhsMax =  -5.51017039036368E-04  1.45587285355592E-01
 cg2d: Sum(rhs),rhsMax =  -5.51187862542706E-04  1.45576867192221E-01
 cg2d: Sum(rhs),rhsMax =  -5.51358755263318E-04  1.45566438339760E-01
 cg2d: Sum(rhs),rhsMax =  -5.51529719371033E-04  1.45555998814281E-01
 cg2d: Sum(rhs),rhsMax =  -5.51700757374147E-04  1.45545548631885E-01
 cg2d: Sum(rhs),rhsMax =  -5.51871871475621E-04  1.45535087808696E-01
 cg2d: Sum(rhs),rhsMax =  -5.52043064064690E-04  1.45524616360862E-01
 cg2d: Sum(rhs),rhsMax =  -5.52214337511024E-04  1.45514134304559E-01
 cg2d: Sum(rhs),rhsMax =  -5.52385694152594E-04  1.45503641655985E-01
 cg2d: Sum(rhs),rhsMax =  -5.52557136470154E-04  1.45493138431366E-01
 cg2d: Sum(rhs),rhsMax =  -5.52728666814237E-04  1.45482624646949E-01
 cg2d: Sum(rhs),rhsMax =  -5.52900287490689E-04  1.45472100319010E-01
 cg2d: Sum(rhs),rhsMax =  -5.53072000962211E-04  1.45461565463848E-01
 cg2d: Sum(rhs),rhsMax =  -5.53243809775754E-04  1.45451020097786E-01
 cg2d: Sum(rhs),rhsMax =  -5.53415716301651E-04  1.45440464237172E-01
 cg2d: Sum(rhs),rhsMax =  -5.53587723025040E-04  1.45429897898382E-01
(PID.TID 0000.0001)      cg2d_init_res =   1.24062705878920E-03
(PID.TID 0000.0001)      cg2d_iters(min,last) =      -1      77
(PID.TID 0000.0001)      cg2d_last_res =   9.17117153221247E-08
(PID.TID 0000.0001) // =======================================================
(PID.TID 0000.0001) // Begin MONITOR dynamic field statistics
(PID.TID 0000.0001) // =======================================================
(PID.TID 0000.0001) %MON time_tsnumber                =                  6336
(PID.TID 0000.0001) %MON time_secondsf                =   7.6032000000000E+06
(PID.TID 0000.0001) %MON dynstat_eta_max              =   5.2735633673987E-02
(PID.TID 0000.0001) %MON dynstat_eta_min              =  -1.8259326150949E-02
(PID.TID 0000.0001) %MON dynstat_eta_mean             =   4.0263689433533E-07
(PID.TID 0000.0001) %MON dynstat_eta_sd               =   1.8128089996798E-02
(PID.TID 0000.0001) %MON dynstat_eta_del2             =   1.8719325408590E-05
(PID.TID 0000.0001) %MON dynstat_uvel_max             =   3.0453701101073E-02
(PID.TID 0000.0001) %MON dynstat_uvel_min             =  -1.6165268443864E-02
(PID.TID 0000.0001) %MON dynstat_uvel_mean            =   1.9649109568704E-07
(PID.TID 0000.0001) %MON dynstat_uvel_sd              =   6.4426944564251E-03
(PID.TID 0000.0001) %MON dynstat_uvel_del2            =   8.0191075612588E-06
(PID.TID 0000.0001) %MON dynstat_vvel_max             =   8.7214504402303E-02
(PID.TID 0000.0001) %MON dynstat_vvel_min             =  -3.5410274358634E-02
(PID.TID 0000.0001) %MON dynstat_vvel_mean            =   5.2257339415387E-09
(PID.TID 0000.0001) %MON dynstat_vvel_sd              =   1.5656817117809E-02
(PID.TID 0000.0001) %MON dynstat_vvel_del2            =   7.6099414658148E-05
(PID.TID 0000.0001) %MON dynstat_wvel_max             =   1.2389593658663E-08
(PID.TID 0000.0001) %MON dynstat_wvel_min             =  -1.9256006008363E-08
(PID.TID 0000.0001) %MON dynstat_wvel_mean            =  -6.4965145914660E-21
(PID.TID 0000.0001) %MON dynstat_wvel_sd              =   6.9105326859259E-09
(PID.TID 0000.0001) %MON dynstat_wvel_del2            =   3.0011821092098E-12
(PID.TID 0000.0001) %MON dynstat_theta_max            =   2.0000000000000E+01
(PID.TID 0000.0001) %MON dynstat_theta_min            =   2.0000000000000E+01
(PID.TID 0000.0001) %MON dynstat_theta_mean           =   2.0000000000000E+01
(PID.TID 0000.0001) %MON dynstat_theta_sd             =   0.0000000000000E+00
(PID.TID 0000.0001) %MON dynstat_theta_del2           =   0.0000000000000E+00
(PID.TID 0000.0001) %MON dynstat_salt_max             =   3.0000000000000E+01
(PID.TID 0000.0001) %MON dynstat_salt_min             =   3.0000000000000E+01
(PID.TID 0000.0001) %MON dynstat_salt_mean            =   3.0000000000000E+01
(PID.TID 0000.0001) %MON dynstat_salt_sd              =   0.0000000000000E+00
(PID.TID 0000.0001) %MON dynstat_salt_del2            =   0.0000000000000E+00
(PID.TID 0000.0001) %MON trAdv_CFL_u_max              =   1.8272189774459E-03
(PID.TID 0000.0001) %MON trAdv_CFL_v_max              =   5.2332312995137E-03
(PID.TID 0000.0001) %MON trAdv_CFL_w_max              =   2.9709808527259E-09
(PID.TID 0000.0001) %MON advcfl_uvel_max              =   1.8272220660644E-03
(PID.TID 0000.0001) %MON advcfl_vvel_max              =   5.2328702641382E-03
(PID.TID 0000.0001) %MON advcfl_wvel_max              =   9.2428828840144E-09
(PID.TID 0000.0001) %MON advcfl_W_hf_max              =   0.0000000000000E+00
(PID.TID 0000.0001) %MON pe_b_mean                    =   3.2238372179932E-07
(PID.TID 0000.0001) %MON ke_max                       =   3.7989636782545E-03
(PID.TID 0000.0001) %MON ke_mean                      =   1.4093341512769E-04
(PID.TID 0000.0001) %MON ke_vol                       =   7.2000000000000E+15
(PID.TID 0000.0001) %MON vort_r_min                   =  -1.5907584015059E-06
(PID.TID 0000.0001) %MON vort_r_max                   =   2.3702717721958E-06
(PID.TID 0000.0001) %MON vort_a_mean                  =   1.0600000000000E-04
(PID.TID 0000.0001) %MON vort_a_sd                    =   3.5379946484703E-06
(PID.TID 0000.0001) %MON vort_p_mean                  =   1.1130000000000E-04
(PID.TID 0000.0001) %MON vort_p_sd                    =   4.1151025703785E-05
(PID.TID 0000.0001) %MON surfExpan_theta_mean         =  -1.2994413446500E-19
(PID.TID 0000.0001) %MON surfExpan_salt_mean          =  -1.9491351742494E-19
(PID.TID 0000.0001) // =======================================================
(PID.TID 0000.0001) // End MONITOR dynamic field statistics
(PID.TID 0000.0001) // =======================================================
 cg2d: Sum(rhs),rhsMax =  -5.53759832320509E-04  1.45419321097812E-01
 cg2d: Sum(rhs),rhsMax =  -5.53932046760567E-04  1.45408733851886E-01
 cg2d: Sum(rhs),rhsMax =  -5.54104368851284E-04  1.45398136177051E-01
 cg2d: Sum(rhs),rhsMax =  -5.54276801073246E-04  1.45387528089780E-01
 cg2d: Sum(rhs),rhsMax =  -5.54449345933290E-04  1.45376909606568E-01
 cg2d: Sum(rhs),rhsMax =  -5.54622005914242E-04  1.45366280743939E-01
 cg2d: Sum(rhs),rhsMax =  -5.54791843962787E-04  1.45356411719841E-01
 cg2d: Sum(rhs),rhsMax =  -5.54961389866850E-04  1.45346639792656E-01
 cg2d: Sum(rhs),rhsMax =  -5.55131057811331E-04  1.45336857094747E-01
 cg2d: Sum(rhs),rhsMax =  -5.55300850308207E-04  1.45327063642058E-01
 cg2d: Sum(rhs),rhsMax =  -5.55470769976391E-04  1.45317259450557E-01
 cg2d: Sum(rhs),rhsMax =  -5.55640819471840E-04  1.45307444536234E-01
 cg2d: Sum(rhs),rhsMax =  -5.55811001424903E-04  1.45297618915108E-01
 cg2d: Sum(rhs),rhsMax =  -5.55981318404905E-04  1.45287782603217E-01
 cg2d: Sum(rhs),rhsMax =  -5.56151773155518E-04  1.45277935616627E-01
 cg2d: Sum(rhs),rhsMax =  -5.56322368195192E-04  1.45268077971426E-01
 cg2d: Sum(rhs),rhsMax =  -5.56493106375894E-04  1.45258209683726E-01
 cg2d: Sum(rhs),rhsMax =  -5.56663990316467E-04  1.45248330769665E-01
 cg2d: Sum(rhs),rhsMax =  -5.56835022717720E-04  1.45238441245402E-01
 cg2d: Sum(rhs),rhsMax =  -5.57006206328345E-04  1.45228541127122E-01
 cg2d: Sum(rhs),rhsMax =  -5.57177543979236E-04  1.45218630431034E-01
 cg2d: Sum(rhs),rhsMax =  -5.57349038320364E-04  1.45208709173370E-01
 cg2d: Sum(rhs),rhsMax =  -5.57520692126083E-04  1.45198777370387E-01
 cg2d: Sum(rhs),rhsMax =  -5.57692508249019E-04  1.45188835038363E-01
 cg2d: Sum(rhs),rhsMax =  -5.57864489436460E-04  1.45178882193603E-01
 cg2d: Sum(rhs),rhsMax =  -5.58036638562487E-04  1.45168918852434E-01
 cg2d: Sum(rhs),rhsMax =  -5.58208958410716E-04  1.45158945031208E-01
 cg2d: Sum(rhs),rhsMax =  -5.58381451840970E-04  1.45148960746298E-01
 cg2d: Sum(rhs),rhsMax =  -5.58554121665692E-04  1.45138966014106E-01
 cg2d: Sum(rhs),rhsMax =  -5.58726970869094E-04  1.45128960851049E-01
 cg2d: Sum(rhs),rhsMax =  -5.58900002334255E-04  1.45118945273576E-01
 cg2d: Sum(rhs),rhsMax =  -5.59073218800853E-04  1.45108919298155E-01
 cg2d: Sum(rhs),rhsMax =  -5.59246623451614E-04  1.45098882941280E-01
 cg2d: Sum(rhs),rhsMax =  -5.59420219098918E-04  1.45088836219464E-01
 cg2d: Sum(rhs),rhsMax =  -5.59594008752020E-04  1.45078779149249E-01
 cg2d: Sum(rhs),rhsMax =  -5.59767995276219E-04  1.45068711747197E-01
 cg2d: Sum(rhs),rhsMax =  -5.59942181768457E-04  1.45058634029893E-01
 cg2d: Sum(rhs),rhsMax =  -5.60116571227831E-04  1.45048546013947E-01
 cg2d: Sum(rhs),rhsMax =  -5.60291166688084E-04  1.45038447715992E-01
 cg2d: Sum(rhs),rhsMax =  -5.60465971271316E-04  1.45028339152685E-01
 cg2d: Sum(rhs),rhsMax =  -5.60640987851563E-04  1.45018220340702E-01
 cg2d: Sum(rhs),rhsMax =  -5.60816219692805E-04  1.45008091296747E-01
 cg2d: Sum(rhs),rhsMax =  -5.60991669831136E-04  1.44997952037545E-01
 cg2d: Sum(rhs),rhsMax =  -5.61167341322922E-04  1.44987802579844E-01
 cg2d: Sum(rhs),rhsMax =  -5.61343237338978E-04  1.44977642940416E-01
 cg2d: Sum(rhs),rhsMax =  -5.61519361022206E-04  1.44967473136055E-01
 cg2d: Sum(rhs),rhsMax =  -5.61695715669736E-04  1.44957293183577E-01
 cg2d: Sum(rhs),rhsMax =  -5.61872304319174E-04  1.44947103099825E-01
 cg2d: Sum(rhs),rhsMax =  -5.62049130284561E-04  1.44936902901659E-01
 cg2d: Sum(rhs),rhsMax =  -5.62226196698161E-04  1.44926692605967E-01
 cg2d: Sum(rhs),rhsMax =  -5.62403506889415E-04  1.44916472229657E-01
 cg2d: Sum(rhs),rhsMax =  -5.62581064024883E-04  1.44906241789660E-01
 cg2d: Sum(rhs),rhsMax =  -5.62758871501886E-04  1.44896001302932E-01
 cg2d: Sum(rhs),rhsMax =  -5.62936932542523E-04  1.44885750786447E-01
 cg2d: Sum(rhs),rhsMax =  -5.63115250495083E-04  1.44875490257207E-01
 cg2d: Sum(rhs),rhsMax =  -5.63293828702289E-04  1.44865219732233E-01
 cg2d: Sum(rhs),rhsMax =  -5.63472670551343E-04  1.44854939228571E-01
 cg2d: Sum(rhs),rhsMax =  -5.63651779391996E-04  1.44844648763286E-01
 cg2d: Sum(rhs),rhsMax =  -5.63831158639135E-04  1.44834348353470E-01
 cg2d: Sum(rhs),rhsMax =  -5.64010811621251E-04  1.44824038016234E-01
 cg2d: Sum(rhs),rhsMax =  -5.64190741943979E-04  1.44813717768713E-01
 cg2d: Sum(rhs),rhsMax =  -5.64370952921074E-04  1.44803387628064E-01
 cg2d: Sum(rhs),rhsMax =  -5.64551448150079E-04  1.44793047611467E-01
 cg2d: Sum(rhs),rhsMax =  -5.64732231127479E-04  1.44782697736122E-01
 cg2d: Sum(rhs),rhsMax =  -5.64913305307188E-04  1.44772338019255E-01
 cg2d: Sum(rhs),rhsMax =  -5.65094674208459E-04  1.44761968478111E-01
 cg2d: Sum(rhs),rhsMax =  -5.65276341548205E-04  1.44751589129959E-01
 cg2d: Sum(rhs),rhsMax =  -5.65458310759554E-04  1.44741199992088E-01
 cg2d: Sum(rhs),rhsMax =  -5.65640585547046E-04  1.44730801081813E-01
 cg2d: Sum(rhs),rhsMax =  -5.65823169480696E-04  1.44720392416467E-01
 cg2d: Sum(rhs),rhsMax =  -5.66006066154507E-04  1.44709974013407E-01
 cg2d: Sum(rhs),rhsMax =  -5.66189279363655E-04  1.44699545890013E-01
(PID.TID 0000.0001)      cg2d_init_res =   1.24254643097077E-03
(PID.TID 0000.0001)      cg2d_iters(min,last) =      -1      77
(PID.TID 0000.0001)      cg2d_last_res =   9.28782798136112E-08
(PID.TID 0000.0001) // =======================================================
(PID.TID 0000.0001) // Begin MONITOR dynamic field statistics
(PID.TID 0000.0001) // =======================================================
(PID.TID 0000.0001) %MON time_tsnumber                =                  6408
(PID.TID 0000.0001) %MON time_secondsf                =   7.6896000000000E+06
(PID.TID 0000.0001) %MON dynstat_eta_max              =   5.2443580734261E-02
(PID.TID 0000.0001) %MON dynstat_eta_min              =  -1.8039798235822E-02
(PID.TID 0000.0001) %MON dynstat_eta_mean             =   4.0973988555650E-07
(PID.TID 0000.0001) %MON dynstat_eta_sd               =   1.7827895421181E-02
(PID.TID 0000.0001) %MON dynstat_eta_del2             =   1.8702719753466E-05
(PID.TID 0000.0001) %MON dynstat_uvel_max             =   3.0451269123053E-02
(PID.TID 0000.0001) %MON dynstat_uvel_min             =  -1.6058962181939E-02
(PID.TID 0000.0001) %MON dynstat_uvel_mean            =   2.1655930455167E-07
(PID.TID 0000.0001) %MON dynstat_uvel_sd              =   6.3618080400698E-03
(PID.TID 0000.0001) %MON dynstat_uvel_del2            =   7.9853746758196E-06
(PID.TID 0000.0001) %MON dynstat_vvel_max             =   8.6764104004183E-02
(PID.TID 0000.0001) %MON dynstat_vvel_min             =  -3.5590037931785E-02
(PID.TID 0000.0001) %MON dynstat_vvel_mean            =   4.7288743562485E-09
(PID.TID 0000.0001) %MON dynstat_vvel_sd              =   1.5600947841138E-02
(PID.TID 0000.0001) %MON dynstat_vvel_del2            =   7.6028262383996E-05
(PID.TID 0000.0001) %MON dynstat_wvel_max             =   1.3088549812310E-08
(PID.TID 0000.0001) %MON dynstat_wvel_min             =  -1.8725956854760E-08
(PID.TID 0000.0001) %MON dynstat_wvel_mean            =  -1.0715535204832E-21
(PID.TID 0000.0001) %MON dynstat_wvel_sd              =   6.9059111954836E-09
(PID.TID 0000.0001) %MON dynstat_wvel_del2            =   2.9861666504438E-12
(PID.TID 0000.0001) %MON dynstat_theta_max            =   2.0000000000000E+01
(PID.TID 0000.0001) %MON dynstat_theta_min            =   2.0000000000000E+01
(PID.TID 0000.0001) %MON dynstat_theta_mean           =   2.0000000000000E+01
(PID.TID 0000.0001) %MON dynstat_theta_sd             =   0.0000000000000E+00
(PID.TID 0000.0001) %MON dynstat_theta_del2           =   0.0000000000000E+00
(PID.TID 0000.0001) %MON dynstat_salt_max             =   3.0000000000000E+01
(PID.TID 0000.0001) %MON dynstat_salt_min             =   3.0000000000000E+01
(PID.TID 0000.0001) %MON dynstat_salt_mean            =   3.0000000000000E+01
(PID.TID 0000.0001) %MON dynstat_salt_sd              =   0.0000000000000E+00
(PID.TID 0000.0001) %MON dynstat_salt_del2            =   0.0000000000000E+00
(PID.TID 0000.0001) %MON trAdv_CFL_u_max              =   1.8270830400667E-03
(PID.TID 0000.0001) %MON trAdv_CFL_v_max              =   5.2062350204861E-03
(PID.TID 0000.0001) %MON trAdv_CFL_w_max              =   3.1386158376583E-09
(PID.TID 0000.0001) %MON advcfl_uvel_max              =   1.8270761473832E-03
(PID.TID 0000.0001) %MON advcfl_vvel_max              =   5.2058462402510E-03
(PID.TID 0000.0001) %MON advcfl_wvel_max              =   8.9884592902847E-09
(PID.TID 0000.0001) %MON advcfl_W_hf_max              =   0.0000000000000E+00
(PID.TID 0000.0001) %MON pe_b_mean                    =   3.1179501206546E-07
(PID.TID 0000.0001) %MON ke_max                       =   3.7614475446932E-03
(PID.TID 0000.0001) %MON ke_mean                      =   1.3956556943770E-04
(PID.TID 0000.0001) %MON ke_vol                       =   7.2000000000000E+15
(PID.TID 0000.0001) %MON vort_r_min                   =  -1.5896671254992E-06
(PID.TID 0000.0001) %MON vort_r_max                   =   2.3555635851062E-06
(PID.TID 0000.0001) %MON vort_a_mean                  =   1.0600000000000E-04
(PID.TID 0000.0001) %MON vort_a_sd                    =   3.5379145058375E-06
(PID.TID 0000.0001) %MON vort_p_mean                  =   1.1130000000000E-04
(PID.TID 0000.0001) %MON vort_p_sd                    =   4.1150967838367E-05
(PID.TID 0000.0001) %MON surfExpan_theta_mean         =  -2.1446385408315E-20
(PID.TID 0000.0001) %MON surfExpan_salt_mean          =  -3.2171791157036E-20
(PID.TID 0000.0001) // =======================================================
(PID.TID 0000.0001) // End MONITOR dynamic field statistics
(PID.TID 0000.0001) // =======================================================
 cg2d: Sum(rhs),rhsMax =  -5.66372812783267E-04  1.44689108063684E-01
 cg2d: Sum(rhs),rhsMax =  -5.66556670056733E-04  1.44678660551844E-01
 cg2d: Sum(rhs),rhsMax =  -5.66740855044996E-04  1.44668203371936E-01
 cg2d: Sum(rhs),rhsMax =  -5.66925371404532E-04  1.44657736541428E-01
 cg2d: Sum(rhs),rhsMax =  -5.67110222970547E-04  1.44647260077807E-01
 cg2d: Sum(rhs),rhsMax =  -5.67295413531415E-04  1.44636773998584E-01
 cg2d: Sum(rhs),rhsMax =  -5.67480946955180E-04  1.44626278321289E-01
 cg2d: Sum(rhs),rhsMax =  -5.67666827063512E-04  1.44615773063477E-01
 cg2d: Sum(rhs),rhsMax =  -5.67853057668331E-04  1.44605258242721E-01
 cg2d: Sum(rhs),rhsMax =  -5.68039642801095E-04  1.44594733876620E-01
 cg2d: Sum(rhs),rhsMax =  -5.68226586339663E-04  1.44584199982790E-01
 cg2d: Sum(rhs),rhsMax =  -5.68413892204748E-04  1.44573656578873E-01
 cg2d: Sum(rhs),rhsMax =  -5.68601564339540E-04  1.44563103682527E-01
 cg2d: Sum(rhs),rhsMax =  -5.68789606862288E-04  1.44552541311437E-01
 cg2d: Sum(rhs),rhsMax =  -5.68978023635160E-04  1.44541969483307E-01
 cg2d: Sum(rhs),rhsMax =  -5.69166818890738E-04  1.44531388215861E-01
 cg2d: Sum(rhs),rhsMax =  -5.69355996528817E-04  1.44520797526846E-01
 cg2d: Sum(rhs),rhsMax =  -5.69545560771613E-04  1.44510197434030E-01
 cg2d: Sum(rhs),rhsMax =  -5.69735515621421E-04  1.44499587955203E-01
 cg2d: Sum(rhs),rhsMax =  -5.69925865323931E-04  1.44488969108174E-01
 cg2d: Sum(rhs),rhsMax =  -5.70116614017284E-04  1.44478340910777E-01
 cg2d: Sum(rhs),rhsMax =  -5.70307765853598E-04  1.44467703380861E-01
 cg2d: Sum(rhs),rhsMax =  -5.70499325044394E-04  1.44457056536303E-01
 cg2d: Sum(rhs),rhsMax =  -5.70691295889907E-04  1.44446400394997E-01
 cg2d: Sum(rhs),rhsMax =  -5.70883682685245E-04  1.44435734974858E-01
 cg2d: Sum(rhs),rhsMax =  -5.71076489703824E-04  1.44425060293824E-01
 cg2d: Sum(rhs),rhsMax =  -5.71269721214501E-04  1.44414376369852E-01
 cg2d: Sum(rhs),rhsMax =  -5.71463381659781E-04  1.44403683220919E-01
 cg2d: Sum(rhs),rhsMax =  -5.71657475307288E-04  1.44392980865028E-01
 cg2d: Sum(rhs),rhsMax =  -5.71852006695924E-04  1.44382269320197E-01
 cg2d: Sum(rhs),rhsMax =  -5.72046980095615E-04  1.44371548604467E-01
 cg2d: Sum(rhs),rhsMax =  -5.72242400199787E-04  1.44360818735900E-01
 cg2d: Sum(rhs),rhsMax =  -5.72438271267059E-04  1.44350079732578E-01
 cg2d: Sum(rhs),rhsMax =  -5.72634597905121E-04  1.44339331612604E-01
 cg2d: Sum(rhs),rhsMax =  -5.72831384662784E-04  1.44328574394104E-01
 cg2d: Sum(rhs),rhsMax =  -5.73028636119030E-04  1.44317808095219E-01
 cg2d: Sum(rhs),rhsMax =  -5.73226356810777E-04  1.44307032734115E-01
 cg2d: Sum(rhs),rhsMax =  -5.73424551432750E-04  1.44296248328977E-01
 cg2d: Sum(rhs),rhsMax =  -5.73623224642715E-04  1.44285454898011E-01
 cg2d: Sum(rhs),rhsMax =  -5.73822381028383E-04  1.44274652459442E-01
 cg2d: Sum(rhs),rhsMax =  -5.74022025432966E-04  1.44263841031517E-01
 cg2d: Sum(rhs),rhsMax =  -5.74222162473190E-04  1.44253020632503E-01
 cg2d: Sum(rhs),rhsMax =  -5.74422796997973E-04  1.44242191280688E-01
 cg2d: Sum(rhs),rhsMax =  -5.74623933784017E-04  1.44231352994376E-01
 cg2d: Sum(rhs),rhsMax =  -5.74825577699861E-04  1.44220505791896E-01
 cg2d: Sum(rhs),rhsMax =  -5.75027733586440E-04  1.44209649691597E-01
 cg2d: Sum(rhs),rhsMax =  -5.75230406285792E-04  1.44198784711844E-01
 cg2d: Sum(rhs),rhsMax =  -5.75433600646899E-04  1.44187910871025E-01
 cg2d: Sum(rhs),rhsMax =  -5.75637321791952E-04  1.44177028187549E-01
 cg2d: Sum(rhs),rhsMax =  -5.75841574574459E-04  1.44166136679843E-01
 cg2d: Sum(rhs),rhsMax =  -5.76046363973110E-04  1.44155236366355E-01
 cg2d: Sum(rhs),rhsMax =  -5.76251695113257E-04  1.44144327265552E-01
 cg2d: Sum(rhs),rhsMax =  -5.76457573036123E-04  1.44133409395920E-01
 cg2d: Sum(rhs),rhsMax =  -5.76664002803678E-04  1.44122482775969E-01
 cg2d: Sum(rhs),rhsMax =  -5.76870989619057E-04  1.44111547424223E-01
 cg2d: Sum(rhs),rhsMax =  -5.77078538552567E-04  1.44100603359230E-01
 cg2d: Sum(rhs),rhsMax =  -5.77286654820507E-04  1.44089650599557E-01
 cg2d: Sum(rhs),rhsMax =  -5.77495343688894E-04  1.44078689163788E-01
 cg2d: Sum(rhs),rhsMax =  -5.77704610416739E-04  1.44067719070529E-01
 cg2d: Sum(rhs),rhsMax =  -5.77914460237175E-04  1.44056740338407E-01
 cg2d: Sum(rhs),rhsMax =  -5.78124898535180E-04  1.44045752986064E-01
 cg2d: Sum(rhs),rhsMax =  -5.78335930530492E-04  1.44034757032166E-01
 cg2d: Sum(rhs),rhsMax =  -5.78547561735141E-04  1.44023752495395E-01
 cg2d: Sum(rhs),rhsMax =  -5.78759797460845E-04  1.44012739394455E-01
 cg2d: Sum(rhs),rhsMax =  -5.78972643154449E-04  1.44001717748067E-01
 cg2d: Sum(rhs),rhsMax =  -5.79186104402911E-04  1.43990687574974E-01
 cg2d: Sum(rhs),rhsMax =  -5.79400186569065E-04  1.43979648893936E-01
 cg2d: Sum(rhs),rhsMax =  -5.79614895304015E-04  1.43968601723732E-01
 cg2d: Sum(rhs),rhsMax =  -5.79830236186801E-04  1.43957546083163E-01
 cg2d: Sum(rhs),rhsMax =  -5.80046214801676E-04  1.43946481991047E-01
 cg2d: Sum(rhs),rhsMax =  -5.80262836750177E-04  1.43935409466220E-01
 cg2d: Sum(rhs),rhsMax =  -5.80480107666264E-04  1.43924328527539E-01
(PID.TID 0000.0001)      cg2d_init_res =   1.24436405426921E-03
(PID.TID 0000.0001)      cg2d_iters(min,last) =      -1      77
(PID.TID 0000.0001)      cg2d_last_res =   9.08129495165199E-08
(PID.TID 0000.0001) // =======================================================
(PID.TID 0000.0001) // Begin MONITOR dynamic field statistics
(PID.TID 0000.0001) // =======================================================
(PID.TID 0000.0001) %MON time_tsnumber                =                  6480
(PID.TID 0000.0001) %MON time_secondsf                =   7.7760000000000E+06
(PID.TID 0000.0001) %MON dynstat_eta_max              =   5.2092744542989E-02
(PID.TID 0000.0001) %MON dynstat_eta_min              =  -1.7857783718830E-02
(PID.TID 0000.0001) %MON dynstat_eta_mean             =   4.1785067490158E-07
(PID.TID 0000.0001) %MON dynstat_eta_sd               =   1.7515968324516E-02
(PID.TID 0000.0001) %MON dynstat_eta_del2             =   1.8682597048817E-05
(PID.TID 0000.0001) %MON dynstat_uvel_max             =   3.0437287647921E-02
(PID.TID 0000.0001) %MON dynstat_uvel_min             =  -1.5952624298798E-02
(PID.TID 0000.0001) %MON dynstat_uvel_mean            =   2.3372870617868E-07
(PID.TID 0000.0001) %MON dynstat_uvel_sd              =   6.2843192398475E-03
(PID.TID 0000.0001) %MON dynstat_uvel_del2            =   7.9515800525557E-06
(PID.TID 0000.0001) %MON dynstat_vvel_max             =   8.6282179932250E-02
(PID.TID 0000.0001) %MON dynstat_vvel_min             =  -3.5753950125629E-02
(PID.TID 0000.0001) %MON dynstat_vvel_mean            =   4.1118241096741E-09
(PID.TID 0000.0001) %MON dynstat_vvel_sd              =   1.5541256293222E-02
(PID.TID 0000.0001) %MON dynstat_vvel_del2            =   7.5934396869434E-05
(PID.TID 0000.0001) %MON dynstat_wvel_max             =   1.3800987193390E-08
(PID.TID 0000.0001) %MON dynstat_wvel_min             =  -1.8222064000438E-08
(PID.TID 0000.0001) %MON dynstat_wvel_mean            =   1.6322640779739E-21
(PID.TID 0000.0001) %MON dynstat_wvel_sd              =   6.9008390168787E-09
(PID.TID 0000.0001) %MON dynstat_wvel_del2            =   2.9719478375543E-12
(PID.TID 0000.0001) %MON dynstat_theta_max            =   2.0000000000000E+01
(PID.TID 0000.0001) %MON dynstat_theta_min            =   2.0000000000000E+01
(PID.TID 0000.0001) %MON dynstat_theta_mean           =   2.0000000000000E+01
(PID.TID 0000.0001) %MON dynstat_theta_sd             =   0.0000000000000E+00
(PID.TID 0000.0001) %MON dynstat_theta_del2           =   0.0000000000000E+00
(PID.TID 0000.0001) %MON dynstat_salt_max             =   3.0000000000000E+01
(PID.TID 0000.0001) %MON dynstat_salt_min             =   3.0000000000000E+01
(PID.TID 0000.0001) %MON dynstat_salt_mean            =   3.0000000000000E+01
(PID.TID 0000.0001) %MON dynstat_salt_sd              =   0.0000000000000E+00
(PID.TID 0000.0001) %MON dynstat_salt_del2            =   0.0000000000000E+00
(PID.TID 0000.0001) %MON trAdv_CFL_u_max              =   1.8262534099139E-03
(PID.TID 0000.0001) %MON trAdv_CFL_v_max              =   5.1773443578678E-03
(PID.TID 0000.0001) %MON trAdv_CFL_w_max              =   3.3101216516574E-09
(PID.TID 0000.0001) %MON advcfl_uvel_max              =   1.8262372588752E-03
(PID.TID 0000.0001) %MON advcfl_vvel_max              =   5.1769307959350E-03
(PID.TID 0000.0001) %MON advcfl_wvel_max              =   8.7465907202102E-09
(PID.TID 0000.0001) %MON advcfl_W_hf_max              =   0.0000000000000E+00
(PID.TID 0000.0001) %MON pe_b_mean                    =   3.0097977273618E-07
(PID.TID 0000.0001) %MON ke_max                       =   3.7213333443789E-03
(PID.TID 0000.0001) %MON ke_mean                      =   1.3816979680450E-04
(PID.TID 0000.0001) %MON ke_vol                       =   7.2000000000000E+15
(PID.TID 0000.0001) %MON vort_r_min                   =  -1.5891466486323E-06
(PID.TID 0000.0001) %MON vort_r_max                   =   2.3405402646948E-06
(PID.TID 0000.0001) %MON vort_a_mean                  =   1.0600000000000E-04
(PID.TID 0000.0001) %MON vort_a_sd                    =   3.5378256302856E-06
(PID.TID 0000.0001) %MON vort_p_mean                  =   1.1130000000000E-04
(PID.TID 0000.0001) %MON vort_p_sd                    =   4.1150921822253E-05
(PID.TID 0000.0001) %MON surfExpan_theta_mean         =   3.2645491248533E-20
(PID.TID 0000.0001) %MON surfExpan_salt_mean          =   4.8968394771186E-20
(PID.TID 0000.0001) // =======================================================
(PID.TID 0000.0001) // End MONITOR dynamic field statistics
(PID.TID 0000.0001) // =======================================================
 cg2d: Sum(rhs),rhsMax =  -5.80698033371003E-04  1.43913239193880E-01
 cg2d: Sum(rhs),rhsMax =  -5.80916619580172E-04  1.43902141484136E-01
 cg2d: Sum(rhs),rhsMax =  -5.81135871928984E-04  1.43891035417222E-01
 cg2d: Sum(rhs),rhsMax =  -5.81355796324390E-04  1.43879921012070E-01
 cg2d: Sum(rhs),rhsMax =  -5.81576398675862E-04  1.43868798287630E-01
 cg2d: Sum(rhs),rhsMax =  -5.81797684770612E-04  1.43857667262872E-01
 cg2d: Sum(rhs),rhsMax =  -5.82019660478415E-04  1.43846527956785E-01
 cg2d: Sum(rhs),rhsMax =  -5.82242331769628E-04  1.43835380388376E-01
 cg2d: Sum(rhs),rhsMax =  -5.82465704600290E-04  1.43824224576670E-01
 cg2d: Sum(rhs),rhsMax =  -5.82689785025615E-04  1.43813060540713E-01
 cg2d: Sum(rhs),rhsMax =  -5.82914579057936E-04  1.43801888299567E-01
 cg2d: Sum(rhs),rhsMax =  -5.83140092762716E-04  1.43790707872314E-01
 cg2d: Sum(rhs),rhsMax =  -5.83366332272079E-04  1.43779519278054E-01
 cg2d: Sum(rhs),rhsMax =  -5.83593303663007E-04  1.43768322535905E-01
 cg2d: Sum(rhs),rhsMax =  -5.83821013177705E-04  1.43757117665006E-01
 cg2d: Sum(rhs),rhsMax =  -5.84049466939571E-04  1.43745904684509E-01
 cg2d: Sum(rhs),rhsMax =  -5.84278671338305E-04  1.43734683613590E-01
 cg2d: Sum(rhs),rhsMax =  -5.84508632405580E-04  1.43723454471439E-01
 cg2d: Sum(rhs),rhsMax =  -5.84739356637849E-04  1.43712217277268E-01
 cg2d: Sum(rhs),rhsMax =  -5.84970850369567E-04  1.43700972050304E-01
 cg2d: Sum(rhs),rhsMax =  -5.85203119897637E-04  1.43689718809794E-01
 cg2d: Sum(rhs),rhsMax =  -5.85436171654718E-04  1.43678457575002E-01
 cg2d: Sum(rhs),rhsMax =  -5.85670012100448E-04  1.43667188365210E-01
 cg2d: Sum(rhs),rhsMax =  -5.85904647728891E-04  1.43655911199719E-01
 cg2d: Sum(rhs),rhsMax =  -5.86140084920739E-04  1.43644626097847E-01
 cg2d: Sum(rhs),rhsMax =  -5.86376330325398E-04  1.43633333078933E-01
 cg2d: Sum(rhs),rhsMax =  -5.86613390492746E-04  1.43622032162327E-01
 cg2d: Sum(rhs),rhsMax =  -5.86851271973545E-04  1.43610723367404E-01
 cg2d: Sum(rhs),rhsMax =  -5.87089981529234E-04  1.43599406713553E-01
 cg2d: Sum(rhs),rhsMax =  -5.87329525707730E-04  1.43588082220181E-01
 cg2d: Sum(rhs),rhsMax =  -5.87569911187474E-04  1.43576749906714E-01
 cg2d: Sum(rhs),rhsMax =  -5.87811144776187E-04  1.43565409792595E-01
 cg2d: Sum(rhs),rhsMax =  -5.88053233222273E-04  1.43554061897284E-01
 cg2d: Sum(rhs),rhsMax =  -5.88296183355247E-04  1.43542706240259E-01
 cg2d: Sum(rhs),rhsMax =  -5.88540001873347E-04  1.43531342841016E-01
 cg2d: Sum(rhs),rhsMax =  -5.88784695725189E-04  1.43519971719067E-01
 cg2d: Sum(rhs),rhsMax =  -5.89030271805038E-04  1.43508592893945E-01
 cg2d: Sum(rhs),rhsMax =  -5.89276737032216E-04  1.43497206385195E-01
 cg2d: Sum(rhs),rhsMax =  -5.89524098277049E-04  1.43485812212384E-01
 cg2d: Sum(rhs),rhsMax =  -5.89772362487358E-04  1.43474410395094E-01
 cg2d: Sum(rhs),rhsMax =  -5.90021536781315E-04  1.43463000952924E-01
 cg2d: Sum(rhs),rhsMax =  -5.90271628161343E-04  1.43451583905492E-01
 cg2d: Sum(rhs),rhsMax =  -5.90522643629110E-04  1.43440159272431E-01
 cg2d: Sum(rhs),rhsMax =  -5.90774590366715E-04  1.43428727073394E-01
 cg2d: Sum(rhs),rhsMax =  -5.91027475384052E-04  1.43417287328046E-01
 cg2d: Sum(rhs),rhsMax =  -5.91281305827591E-04  1.43405840056077E-01
 cg2d: Sum(rhs),rhsMax =  -5.91536088850528E-04  1.43394385277184E-01
 cg2d: Sum(rhs),rhsMax =  -5.91791831795416E-04  1.43382923011090E-01
 cg2d: Sum(rhs),rhsMax =  -5.92048541726466E-04  1.43371453277530E-01
 cg2d: Sum(rhs),rhsMax =  -5.92306225965175E-04  1.43359976096257E-01
 cg2d: Sum(rhs),rhsMax =  -5.92564891655510E-04  1.43348491487040E-01
 cg2d: Sum(rhs),rhsMax =  -5.92937108814632E-04  1.43336999357765E-01
 cg2d: Sum(rhs),rhsMax =  -5.93310523551147E-04  1.43325499933711E-01
 cg2d: Sum(rhs),rhsMax =  -5.93685006182314E-04  1.43313993148178E-01
 cg2d: Sum(rhs),rhsMax =  -5.94060600949651E-04  1.43302479023616E-01
 cg2d: Sum(rhs),rhsMax =  -5.94437315932375E-04  1.43290957568967E-01
 cg2d: Sum(rhs),rhsMax =  -5.94815156287799E-04  1.43279428803640E-01
 cg2d: Sum(rhs),rhsMax =  -5.95194127216398E-04  1.43267892748889E-01
 cg2d: Sum(rhs),rhsMax =  -5.95708049867013E-04  1.43256349679246E-01
 cg2d: Sum(rhs),rhsMax =  -5.96223017805724E-04  1.43244799068990E-01
 cg2d: Sum(rhs),rhsMax =  -5.96739111202667E-04  1.43233241250541E-01
 cg2d: Sum(rhs),rhsMax =  -5.97256299161153E-04  1.43221676235644E-01
 cg2d: Sum(rhs),rhsMax =  -5.97774585184962E-04  1.43210104028633E-01
 cg2d: Sum(rhs),rhsMax =  -5.98293970369640E-04  1.43198524650537E-01
 cg2d: Sum(rhs),rhsMax =  -5.98814455197304E-04  1.43186938122589E-01
 cg2d: Sum(rhs),rhsMax =  -5.99336039900291E-04  1.43175344465386E-01
 cg2d: Sum(rhs),rhsMax =  -5.99858724552472E-04  1.43163743698964E-01
 cg2d: Sum(rhs),rhsMax =  -6.00382509272607E-04  1.43152135843276E-01
 cg2d: Sum(rhs),rhsMax =  -6.00907394028068E-04  1.43140520918331E-01
 cg2d: Sum(rhs),rhsMax =  -6.01433378793773E-04  1.43128898944194E-01
 cg2d: Sum(rhs),rhsMax =  -6.01960463513734E-04  1.43117269940964E-01
 cg2d: Sum(rhs),rhsMax =  -6.02488647829320E-04  1.43105633928758E-01
(PID.TID 0000.0001)      cg2d_init_res =   1.24604456310981E-03
(PID.TID 0000.0001)      cg2d_iters(min,last) =      -1      74
(PID.TID 0000.0001)      cg2d_last_res =   9.98146721745855E-08
(PID.TID 0000.0001) // =======================================================
(PID.TID 0000.0001) // Begin MONITOR dynamic field statistics
(PID.TID 0000.0001) // =======================================================
(PID.TID 0000.0001) %MON time_tsnumber                =                  6552
(PID.TID 0000.0001) %MON time_secondsf                =   7.8624000000000E+06
(PID.TID 0000.0001) %MON dynstat_eta_max              =   5.1714972176164E-02
(PID.TID 0000.0001) %MON dynstat_eta_min              =  -1.7716263195159E-02
(PID.TID 0000.0001) %MON dynstat_eta_mean             =   4.3153806283505E-07
(PID.TID 0000.0001) %MON dynstat_eta_sd               =   1.7196156041247E-02
(PID.TID 0000.0001) %MON dynstat_eta_del2             =   1.8659029776637E-05
(PID.TID 0000.0001) %MON dynstat_uvel_max             =   3.0412693768035E-02
(PID.TID 0000.0001) %MON dynstat_uvel_min             =  -1.5851195849435E-02
(PID.TID 0000.0001) %MON dynstat_uvel_mean            =   2.4776605858754E-07
(PID.TID 0000.0001) %MON dynstat_uvel_sd              =   6.2113739275801E-03
(PID.TID 0000.0001) %MON dynstat_uvel_del2            =   7.9180913157282E-06
(PID.TID 0000.0001) %MON dynstat_vvel_max             =   8.5783787624232E-02
(PID.TID 0000.0001) %MON dynstat_vvel_min             =  -3.5899189920499E-02
(PID.TID 0000.0001) %MON dynstat_vvel_mean            =   3.3862818229194E-09
(PID.TID 0000.0001) %MON dynstat_vvel_sd              =   1.5478289039684E-02
(PID.TID 0000.0001) %MON dynstat_vvel_del2            =   7.5818945424101E-05
(PID.TID 0000.0001) %MON dynstat_wvel_max             =   1.4479905738626E-08
(PID.TID 0000.0001) %MON dynstat_wvel_min             =  -1.7578914460028E-08
(PID.TID 0000.0001) %MON dynstat_wvel_mean            =  -1.1575785821252E-21
(PID.TID 0000.0001) %MON dynstat_wvel_sd              =   6.8946595627917E-09
(PID.TID 0000.0001) %MON dynstat_wvel_del2            =   2.9557582339475E-12
(PID.TID 0000.0001) %MON dynstat_theta_max            =   2.0000000000000E+01
(PID.TID 0000.0001) %MON dynstat_theta_min            =   2.0000000000000E+01
(PID.TID 0000.0001) %MON dynstat_theta_mean           =   2.0000000000000E+01
(PID.TID 0000.0001) %MON dynstat_theta_sd             =   0.0000000000000E+00
(PID.TID 0000.0001) %MON dynstat_theta_del2           =   0.0000000000000E+00
(PID.TID 0000.0001) %MON dynstat_salt_max             =   3.0000000000000E+01
(PID.TID 0000.0001) %MON dynstat_salt_min             =   3.0000000000000E+01
(PID.TID 0000.0001) %MON dynstat_salt_mean            =   3.0000000000000E+01
(PID.TID 0000.0001) %MON dynstat_salt_sd              =   0.0000000000000E+00
(PID.TID 0000.0001) %MON dynstat_salt_del2            =   0.0000000000000E+00
(PID.TID 0000.0001) %MON trAdv_CFL_u_max              =   1.8247861994113E-03
(PID.TID 0000.0001) %MON trAdv_CFL_v_max              =   5.1474338520953E-03
(PID.TID 0000.0001) %MON trAdv_CFL_w_max              =   3.4730389017030E-09
(PID.TID 0000.0001) %MON advcfl_uvel_max              =   1.8247616260821E-03
(PID.TID 0000.0001) %MON advcfl_vvel_max              =   5.1470272574539E-03
(PID.TID 0000.0001) %MON advcfl_wvel_max              =   8.4378789408132E-09
(PID.TID 0000.0001) %MON advcfl_W_hf_max              =   0.0000000000000E+00
(PID.TID 0000.0001) %MON pe_b_mean                    =   2.9008933490829E-07
(PID.TID 0000.0001) %MON ke_max                       =   3.6789808897178E-03
(PID.TID 0000.0001) %MON ke_mean                      =   1.3676131054842E-04
(PID.TID 0000.0001) %MON ke_vol                       =   7.2000000000000E+15
(PID.TID 0000.0001) %MON vort_r_min                   =  -1.5879902018862E-06
(PID.TID 0000.0001) %MON vort_r_max                   =   2.3253149800827E-06
(PID.TID 0000.0001) %MON vort_a_mean                  =   1.0600000000000E-04
(PID.TID 0000.0001) %MON vort_a_sd                    =   3.5377289383613E-06
(PID.TID 0000.0001) %MON vort_p_mean                  =   1.1130000000000E-04
(PID.TID 0000.0001) %MON vort_p_sd                    =   4.1150888395111E-05
(PID.TID 0000.0001) %MON surfExpan_theta_mean         =  -2.3158640437436E-20
(PID.TID 0000.0001) %MON surfExpan_salt_mean          =  -3.4735750078754E-20
(PID.TID 0000.0001) // =======================================================
(PID.TID 0000.0001) // End MONITOR dynamic field statistics
(PID.TID 0000.0001) // =======================================================
 cg2d: Sum(rhs),rhsMax =  -6.03153298647223E-04  1.43093990802216E-01
 cg2d: Sum(rhs),rhsMax =  -6.03818888102891E-04  1.43082340788255E-01
 cg2d: Sum(rhs),rhsMax =  -6.04485332643099E-04  1.43070683857686E-01
 cg2d: Sum(rhs),rhsMax =  -6.05152650207500E-04  1.43059020006477E-01
 cg2d: Sum(rhs),rhsMax =  -6.05820837372427E-04  1.43047349245442E-01
 cg2d: Sum(rhs),rhsMax =  -6.06489888385076E-04  1.43035671594866E-01
 cg2d: Sum(rhs),rhsMax =  -6.07159796465558E-04  1.43023987076131E-01
 cg2d: Sum(rhs),rhsMax =  -6.07830554394973E-04  1.43012295709991E-01
 cg2d: Sum(rhs),rhsMax =  -6.08502155007757E-04  1.43000597516769E-01
 cg2d: Sum(rhs),rhsMax =  -6.09174591214377E-04  1.42988892516678E-01
 cg2d: Sum(rhs),rhsMax =  -6.09847855673159E-04  1.42977180729946E-01
 cg2d: Sum(rhs),rhsMax =  -6.10655857369960E-04  1.42965461881264E-01
 cg2d: Sum(rhs),rhsMax =  -6.11464292608038E-04  1.42953736554329E-01
 cg2d: Sum(rhs),rhsMax =  -6.12273195851700E-04  1.42942004521020E-01
 cg2d: Sum(rhs),rhsMax =  -6.13082538767605E-04  1.42930265787287E-01
 cg2d: Sum(rhs),rhsMax =  -6.13892309557907E-04  1.42918520367072E-01
 cg2d: Sum(rhs),rhsMax =  -6.14702494588838E-04  1.42906768281128E-01
 cg2d: Sum(rhs),rhsMax =  -6.15513078852267E-04  1.42895009550483E-01
 cg2d: Sum(rhs),rhsMax =  -6.16324047033203E-04  1.42883244196001E-01
 cg2d: Sum(rhs),rhsMax =  -6.17135383581927E-04  1.42871472238241E-01
 cg2d: Sum(rhs),rhsMax =  -6.17947073206030E-04  1.42859693697633E-01
 cg2d: Sum(rhs),rhsMax =  -6.18759100404777E-04  1.42847908594577E-01
 cg2d: Sum(rhs),rhsMax =  -6.19571449443023E-04  1.42836116949489E-01
 cg2d: Sum(rhs),rhsMax =  -6.20384104015428E-04  1.42824318782822E-01
 cg2d: Sum(rhs),rhsMax =  -6.21197047709706E-04  1.42812514115061E-01
 cg2d: Sum(rhs),rhsMax =  -6.22010263583847E-04  1.42800702966726E-01
 cg2d: Sum(rhs),rhsMax =  -6.22823734383302E-04  1.42788885358354E-01
 cg2d: Sum(rhs),rhsMax =  -6.23637442421309E-04  1.42777061310495E-01
 cg2d: Sum(rhs),rhsMax =  -6.24451369936987E-04  1.42765230843706E-01
 cg2d: Sum(rhs),rhsMax =  -6.25265498528465E-04  1.42753393978550E-01
 cg2d: Sum(rhs),rhsMax =  -6.26079809736300E-04  1.42741550735605E-01
 cg2d: Sum(rhs),rhsMax =  -6.26894284517743E-04  1.42729701135462E-01
 cg2d: Sum(rhs),rhsMax =  -6.27708903383587E-04  1.42717845198725E-01
 cg2d: Sum(rhs),rhsMax =  -6.28523646828052E-04  1.42705982946019E-01
 cg2d: Sum(rhs),rhsMax =  -6.29338494544672E-04  1.42694114397983E-01
 cg2d: Sum(rhs),rhsMax =  -6.30153426160336E-04  1.42682239575268E-01
 cg2d: Sum(rhs),rhsMax =  -6.30968420613377E-04  1.42670358498544E-01
 cg2d: Sum(rhs),rhsMax =  -6.31783456717855E-04  1.42658471188492E-01
 cg2d: Sum(rhs),rhsMax =  -6.32598512723444E-04  1.42646577665806E-01
 cg2d: Sum(rhs),rhsMax =  -6.33413566492704E-04  1.42634677951194E-01
 cg2d: Sum(rhs),rhsMax =  -6.34228595422772E-04  1.42622772065380E-01
 cg2d: Sum(rhs),rhsMax =  -6.35043576489200E-04  1.42610860029100E-01
 cg2d: Sum(rhs),rhsMax =  -6.35993635683080E-04  1.42598942003902E-01
 cg2d: Sum(rhs),rhsMax =  -6.36943021262924E-04  1.42587017720562E-01
 cg2d: Sum(rhs),rhsMax =  -6.37891639312571E-04  1.42575087347339E-01
 cg2d: Sum(rhs),rhsMax =  -6.38839482470548E-04  1.42563150909553E-01
 cg2d: Sum(rhs),rhsMax =  -6.39786520101912E-04  1.42551208425264E-01
 cg2d: Sum(rhs),rhsMax =  -6.40732719465372E-04  1.42539259914350E-01
 cg2d: Sum(rhs),rhsMax =  -6.41678046690177E-04  1.42527305397880E-01
 cg2d: Sum(rhs),rhsMax =  -6.42622467474207E-04  1.42515344897143E-01
 cg2d: Sum(rhs),rhsMax =  -6.43565947286406E-04  1.42503378433303E-01
 cg2d: Sum(rhs),rhsMax =  -6.44508451343227E-04  1.42491406027334E-01
 cg2d: Sum(rhs),rhsMax =  -6.45449944589344E-04  1.42479427700086E-01
 cg2d: Sum(rhs),rhsMax =  -6.46390391379705E-04  1.42467443472374E-01
 cg2d: Sum(rhs),rhsMax =  -6.47329755462976E-04  1.42455453365044E-01
 cg2d: Sum(rhs),rhsMax =  -6.48268000102223E-04  1.42443457398994E-01
 cg2d: Sum(rhs),rhsMax =  -6.49205087737434E-04  1.42431455595169E-01
 cg2d: Sum(rhs),rhsMax =  -6.50140980411001E-04  1.42419447974543E-01
 cg2d: Sum(rhs),rhsMax =  -6.51075639595942E-04  1.42407434558101E-01
 cg2d: Sum(rhs),rhsMax =  -6.52009026158932E-04  1.42395415366829E-01
 cg2d: Sum(rhs),rhsMax =  -6.52941100411882E-04  1.42383390421718E-01
 cg2d: Sum(rhs),rhsMax =  -6.53871822118015E-04  1.42371359743766E-01
 cg2d: Sum(rhs),rhsMax =  -6.54801150513205E-04  1.42359323353984E-01
 cg2d: Sum(rhs),rhsMax =  -6.55729043958877E-04  1.42347281273398E-01
 cg2d: Sum(rhs),rhsMax =  -6.56655460663589E-04  1.42335233523050E-01
 cg2d: Sum(rhs),rhsMax =  -6.57580357821681E-04  1.42323180123995E-01
 cg2d: Sum(rhs),rhsMax =  -6.58503692306736E-04  1.42311121097303E-01
 cg2d: Sum(rhs),rhsMax =  -6.59425420176618E-04  1.42299056464056E-01
 cg2d: Sum(rhs),rhsMax =  -6.60345496920720E-04  1.42286986245347E-01
 cg2d: Sum(rhs),rhsMax =  -6.61263877392792E-04  1.42274910462283E-01
 cg2d: Sum(rhs),rhsMax =  -6.62304708852863E-04  1.42262828972030E-01
 cg2d: Sum(rhs),rhsMax =  -6.63342741945546E-04  1.42250742140274E-01
(PID.TID 0000.0001)      cg2d_init_res =   1.24752932636669E-03
(PID.TID 0000.0001)      cg2d_iters(min,last) =      -1      71
(PID.TID 0000.0001)      cg2d_last_res =   9.85785998992552E-08
(PID.TID 0000.0001) // =======================================================
(PID.TID 0000.0001) // Begin MONITOR dynamic field statistics
(PID.TID 0000.0001) // =======================================================
(PID.TID 0000.0001) %MON time_tsnumber                =                  6624
(PID.TID 0000.0001) %MON time_secondsf                =   7.9488000000000E+06
(PID.TID 0000.0001) %MON dynstat_eta_max              =   5.1274584198382E-02
(PID.TID 0000.0001) %MON dynstat_eta_min              =  -1.7617662558257E-02
(PID.TID 0000.0001) %MON dynstat_eta_mean             =   4.7250116807661E-07
(PID.TID 0000.0001) %MON dynstat_eta_sd               =   1.6872609848819E-02
(PID.TID 0000.0001) %MON dynstat_eta_del2             =   1.8632122570010E-05
(PID.TID 0000.0001) %MON dynstat_uvel_max             =   3.0378554078538E-02
(PID.TID 0000.0001) %MON dynstat_uvel_min             =  -1.5802817282469E-02
(PID.TID 0000.0001) %MON dynstat_uvel_mean            =   2.5847943953447E-07
(PID.TID 0000.0001) %MON dynstat_uvel_sd              =   6.1441215648101E-03
(PID.TID 0000.0001) %MON dynstat_uvel_del2            =   7.8853448386760E-06
(PID.TID 0000.0001) %MON dynstat_vvel_max             =   8.5283609736971E-02
(PID.TID 0000.0001) %MON dynstat_vvel_min             =  -3.6090428891558E-02
(PID.TID 0000.0001) %MON dynstat_vvel_mean            =   2.5658929901238E-09
(PID.TID 0000.0001) %MON dynstat_vvel_sd              =   1.5412644318518E-02
(PID.TID 0000.0001) %MON dynstat_vvel_del2            =   7.5683278358170E-05
(PID.TID 0000.0001) %MON dynstat_wvel_max             =   1.5128181071923E-08
(PID.TID 0000.0001) %MON dynstat_wvel_min             =  -1.6935263141058E-08
(PID.TID 0000.0001) %MON dynstat_wvel_mean            =   1.4513049488111E-21
(PID.TID 0000.0001) %MON dynstat_wvel_sd              =   6.8868143404910E-09
(PID.TID 0000.0001) %MON dynstat_wvel_del2            =   2.9408806633983E-12
(PID.TID 0000.0001) %MON dynstat_theta_max            =   2.0000000000000E+01
(PID.TID 0000.0001) %MON dynstat_theta_min            =   2.0000000000000E+01
(PID.TID 0000.0001) %MON dynstat_theta_mean           =   2.0000000000000E+01
(PID.TID 0000.0001) %MON dynstat_theta_sd             =   0.0000000000000E+00
(PID.TID 0000.0001) %MON dynstat_theta_del2           =   0.0000000000000E+00
(PID.TID 0000.0001) %MON dynstat_salt_max             =   3.0000000000000E+01
(PID.TID 0000.0001) %MON dynstat_salt_min             =   3.0000000000000E+01
(PID.TID 0000.0001) %MON dynstat_salt_mean            =   3.0000000000000E+01
(PID.TID 0000.0001) %MON dynstat_salt_sd              =   0.0000000000000E+00
(PID.TID 0000.0001) %MON dynstat_salt_del2            =   0.0000000000000E+00
(PID.TID 0000.0001) %MON trAdv_CFL_u_max              =   1.8227453022392E-03
(PID.TID 0000.0001) %MON trAdv_CFL_v_max              =   5.1174427565608E-03
(PID.TID 0000.0001) %MON trAdv_CFL_w_max              =   3.6284696895455E-09
(PID.TID 0000.0001) %MON advcfl_uvel_max              =   1.8227132447123E-03
(PID.TID 0000.0001) %MON advcfl_vvel_max              =   5.1170165842183E-03
(PID.TID 0000.0001) %MON advcfl_wvel_max              =   8.1289263077080E-09
(PID.TID 0000.0001) %MON advcfl_W_hf_max              =   0.0000000000000E+00
(PID.TID 0000.0001) %MON pe_b_mean                    =   2.7927594903038E-07
(PID.TID 0000.0001) %MON ke_max                       =   3.6347749533988E-03
(PID.TID 0000.0001) %MON ke_mean                      =   1.3535575208990E-04
(PID.TID 0000.0001) %MON ke_vol                       =   7.2000000000000E+15
(PID.TID 0000.0001) %MON vort_r_min                   =  -1.5861805332926E-06
(PID.TID 0000.0001) %MON vort_r_max                   =   2.3095832517528E-06
(PID.TID 0000.0001) %MON vort_a_mean                  =   1.0600000000000E-04
(PID.TID 0000.0001) %MON vort_a_sd                    =   3.5376254446853E-06
(PID.TID 0000.0001) %MON vort_p_mean                  =   1.1130000000000E-04
(PID.TID 0000.0001) %MON vort_p_sd                    =   4.1150868115443E-05
(PID.TID 0000.0001) %MON surfExpan_theta_mean         =   2.9028355028357E-20
(PID.TID 0000.0001) %MON surfExpan_salt_mean          =   4.3541585152222E-20
(PID.TID 0000.0001) // =======================================================
(PID.TID 0000.0001) // End MONITOR dynamic field statistics
(PID.TID 0000.0001) // =======================================================
 cg2d: Sum(rhs),rhsMax =  -6.64378027764497E-04  1.42238649785288E-01
 cg2d: Sum(rhs),rhsMax =  -6.65410477707669E-04  1.42226551954129E-01
 cg2d: Sum(rhs),rhsMax =  -6.66440036808726E-04  1.42214448664628E-01
 cg2d: Sum(rhs),rhsMax =  -6.67466650073925E-04  1.42202339937208E-01
 cg2d: Sum(rhs),rhsMax =  -6.68490262950373E-04  1.42190225792691E-01
 cg2d: Sum(rhs),rhsMax =  -6.69510820392146E-04  1.42178106252740E-01
 cg2d: Sum(rhs),rhsMax =  -6.70528266719505E-04  1.42165981339021E-01
 cg2d: Sum(rhs),rhsMax =  -6.71542544910670E-04  1.42153851072963E-01
 cg2d: Sum(rhs),rhsMax =  -6.72553597781309E-04  1.42141715475773E-01
 cg2d: Sum(rhs),rhsMax =  -6.74229653498312E-04  1.42129574640646E-01
 cg2d: Sum(rhs),rhsMax =  -6.75894656242686E-04  1.42117428487607E-01
 cg2d: Sum(rhs),rhsMax =  -6.77548533961509E-04  1.42105277003735E-01
 cg2d: Sum(rhs),rhsMax =  -6.79191219600095E-04  1.42093120276143E-01
 cg2d: Sum(rhs),rhsMax =  -6.80822651343919E-04  1.42080958333560E-01
 cg2d: Sum(rhs),rhsMax =  -6.82442794018329E-04  1.42068791187447E-01
 cg2d: Sum(rhs),rhsMax =  -6.84051625265164E-04  1.42056618854149E-01
 cg2d: Sum(rhs),rhsMax =  -6.85649122101993E-04  1.42044441356674E-01
 cg2d: Sum(rhs),rhsMax =  -6.87301656254319E-04  1.42032259076094E-01
 cg2d: Sum(rhs),rhsMax =  -6.88941946474359E-04  1.42020071337343E-01
 cg2d: Sum(rhs),rhsMax =  -6.90569980334085E-04  1.42007878483371E-01
 cg2d: Sum(rhs),rhsMax =  -6.92185718411365E-04  1.41995680555067E-01
 cg2d: Sum(rhs),rhsMax =  -6.93789131679042E-04  1.41983477573785E-01
 cg2d: Sum(rhs),rhsMax =  -6.95380192221185E-04  1.41971269560034E-01
 cg2d: Sum(rhs),rhsMax =  -6.96958874444467E-04  1.41959056534338E-01
 cg2d: Sum(rhs),rhsMax =  -6.98525153530150E-04  1.41946838518367E-01
 cg2d: Sum(rhs),rhsMax =  -7.00079004114392E-04  1.41934615534136E-01
 cg2d: Sum(rhs),rhsMax =  -7.01620400124796E-04  1.41922387603434E-01
 cg2d: Sum(rhs),rhsMax =  -7.03149315217540E-04  1.41910154747737E-01
 cg2d: Sum(rhs),rhsMax =  -7.04665723077794E-04  1.41897916988362E-01
 cg2d: Sum(rhs),rhsMax =  -7.06169597702182E-04  1.41885674346637E-01
 cg2d: Sum(rhs),rhsMax =  -7.07660913491877E-04  1.41873426843972E-01
 cg2d: Sum(rhs),rhsMax =  -7.09139644936984E-04  1.41861174501864E-01
 cg2d: Sum(rhs),rhsMax =  -7.10605766813424E-04  1.41848917341859E-01
 cg2d: Sum(rhs),rhsMax =  -7.12059254000464E-04  1.41836655385517E-01
 cg2d: Sum(rhs),rhsMax =  -7.13500081228446E-04  1.41824388654391E-01
 cg2d: Sum(rhs),rhsMax =  -7.14928223687942E-04  1.41812117170027E-01
 cg2d: Sum(rhs),rhsMax =  -7.16343656473166E-04  1.41799840953970E-01
 cg2d: Sum(rhs),rhsMax =  -7.17788098213242E-04  1.41787559616006E-01
 cg2d: Sum(rhs),rhsMax =  -7.19219257817236E-04  1.41775274006599E-01
 cg2d: Sum(rhs),rhsMax =  -7.20637078164914E-04  1.41762983728182E-01
 cg2d: Sum(rhs),rhsMax =  -7.22041548885462E-04  1.41750688802371E-01
 cg2d: Sum(rhs),rhsMax =  -7.23432649762926E-04  1.41738389253504E-01
 cg2d: Sum(rhs),rhsMax =  -7.24810359026670E-04  1.41726085102817E-01
 cg2d: Sum(rhs),rhsMax =  -7.26174656541448E-04  1.41713776371258E-01
 cg2d: Sum(rhs),rhsMax =  -7.27525522972136E-04  1.41701463080455E-01
 cg2d: Sum(rhs),rhsMax =  -7.28862939097567E-04  1.41689145252348E-01
 cg2d: Sum(rhs),rhsMax =  -7.30186885192291E-04  1.41676822908789E-01
 cg2d: Sum(rhs),rhsMax =  -7.31497341489119E-04  1.41664496071457E-01
 cg2d: Sum(rhs),rhsMax =  -7.32794288228669E-04  1.41652164761942E-01
 cg2d: Sum(rhs),rhsMax =  -7.34077705915526E-04  1.41639829001849E-01
 cg2d: Sum(rhs),rhsMax =  -7.35347575333721E-04  1.41627488812836E-01
 cg2d: Sum(rhs),rhsMax =  -7.36603877402450E-04  1.41615144216614E-01
 cg2d: Sum(rhs),rhsMax =  -7.37846593236632E-04  1.41602795234922E-01
 cg2d: Sum(rhs),rhsMax =  -7.39075703937235E-04  1.41590441889506E-01
 cg2d: Sum(rhs),rhsMax =  -7.40291190801071E-04  1.41578084202116E-01
 cg2d: Sum(rhs),rhsMax =  -7.41493035318425E-04  1.41565722194494E-01
 cg2d: Sum(rhs),rhsMax =  -7.42681219048918E-04  1.41553355888387E-01
 cg2d: Sum(rhs),rhsMax =  -7.43855723671531E-04  1.41540985305555E-01
 cg2d: Sum(rhs),rhsMax =  -7.45016531125092E-04  1.41528610467769E-01
 cg2d: Sum(rhs),rhsMax =  -7.46163623274668E-04  1.41516231396810E-01
 cg2d: Sum(rhs),rhsMax =  -7.47296982357186E-04  1.41503848114473E-01
 cg2d: Sum(rhs),rhsMax =  -7.48416590659501E-04  1.41491460642560E-01
 cg2d: Sum(rhs),rhsMax =  -7.49522430584825E-04  1.41479069002883E-01
 cg2d: Sum(rhs),rhsMax =  -7.50614484742639E-04  1.41466673217265E-01
 cg2d: Sum(rhs),rhsMax =  -7.51692735882135E-04  1.41454273307532E-01
 cg2d: Sum(rhs),rhsMax =  -7.52757166771642E-04  1.41441869295524E-01
 cg2d: Sum(rhs),rhsMax =  -7.53807760585014E-04  1.41429461203089E-01
 cg2d: Sum(rhs),rhsMax =  -7.54844500409043E-04  1.41417049052082E-01
 cg2d: Sum(rhs),rhsMax =  -7.55867369579415E-04  1.41404632864369E-01
 cg2d: Sum(rhs),rhsMax =  -7.56876351593262E-04  1.41392212661825E-01
 cg2d: Sum(rhs),rhsMax =  -7.57871430155003E-04  1.41379788466333E-01
 cg2d: Sum(rhs),rhsMax =  -7.58852589012099E-04  1.41367360299785E-01
(PID.TID 0000.0001)      cg2d_init_res =   1.24878566176463E-03
(PID.TID 0000.0001)      cg2d_iters(min,last) =      -1      64
(PID.TID 0000.0001)      cg2d_last_res =   8.95559238189454E-08
(PID.TID 0000.0001) // =======================================================
(PID.TID 0000.0001) // Begin MONITOR dynamic field statistics
(PID.TID 0000.0001) // =======================================================
(PID.TID 0000.0001) %MON time_tsnumber                =                  6696
(PID.TID 0000.0001) %MON time_secondsf                =   8.0352000000000E+06
(PID.TID 0000.0001) %MON dynstat_eta_max              =   5.0774028164238E-02
(PID.TID 0000.0001) %MON dynstat_eta_min              =  -1.7563860348451E-02
(PID.TID 0000.0001) %MON dynstat_eta_mean             =   5.3702137482379E-07
(PID.TID 0000.0001) %MON dynstat_eta_sd               =   1.6549759072233E-02
(PID.TID 0000.0001) %MON dynstat_eta_del2             =   1.8602012796840E-05
(PID.TID 0000.0001) %MON dynstat_uvel_max             =   3.0336051892523E-02
(PID.TID 0000.0001) %MON dynstat_uvel_min             =  -1.5793432267049E-02
(PID.TID 0000.0001) %MON dynstat_uvel_mean            =   2.6572323558588E-07
(PID.TID 0000.0001) %MON dynstat_uvel_sd              =   6.0837013637300E-03
(PID.TID 0000.0001) %MON dynstat_uvel_del2            =   7.8538558546344E-06
(PID.TID 0000.0001) %MON dynstat_vvel_max             =   8.4762139932537E-02
(PID.TID 0000.0001) %MON dynstat_vvel_min             =  -3.6276763753847E-02
(PID.TID 0000.0001) %MON dynstat_vvel_mean            =   1.6655241737358E-09
(PID.TID 0000.0001) %MON dynstat_vvel_sd              =   1.5344962251736E-02
(PID.TID 0000.0001) %MON dynstat_vvel_del2            =   7.5529000176845E-05
(PID.TID 0000.0001) %MON dynstat_wvel_max             =   1.5726472507158E-08
(PID.TID 0000.0001) %MON dynstat_wvel_min             =  -1.6211557773640E-08
(PID.TID 0000.0001) %MON dynstat_wvel_mean            =  -3.3163821121383E-21
(PID.TID 0000.0001) %MON dynstat_wvel_sd              =   6.8768703817663E-09
(PID.TID 0000.0001) %MON dynstat_wvel_del2            =   2.9276174871180E-12
(PID.TID 0000.0001) %MON dynstat_theta_max            =   2.0000000000000E+01
(PID.TID 0000.0001) %MON dynstat_theta_min            =   2.0000000000000E+01
(PID.TID 0000.0001) %MON dynstat_theta_mean           =   2.0000000000000E+01
(PID.TID 0000.0001) %MON dynstat_theta_sd             =   0.0000000000000E+00
(PID.TID 0000.0001) %MON dynstat_theta_del2           =   0.0000000000000E+00
(PID.TID 0000.0001) %MON dynstat_salt_max             =   3.0000000000000E+01
(PID.TID 0000.0001) %MON dynstat_salt_min             =   3.0000000000000E+01
(PID.TID 0000.0001) %MON dynstat_salt_mean            =   3.0000000000000E+01
(PID.TID 0000.0001) %MON dynstat_salt_sd              =   0.0000000000000E+00
(PID.TID 0000.0001) %MON dynstat_salt_del2            =   0.0000000000000E+00
(PID.TID 0000.0001) %MON trAdv_CFL_u_max              =   1.8202016247687E-03
(PID.TID 0000.0001) %MON trAdv_CFL_v_max              =   5.0861704934966E-03
(PID.TID 0000.0001) %MON trAdv_CFL_w_max              =   3.7726503352169E-09
(PID.TID 0000.0001) %MON advcfl_uvel_max              =   1.8201631135514E-03
(PID.TID 0000.0001) %MON advcfl_vvel_max              =   5.0857283959522E-03
(PID.TID 0000.0001) %MON advcfl_wvel_max              =   7.7815477313474E-09
(PID.TID 0000.0001) %MON advcfl_W_hf_max              =   0.0000000000000E+00
(PID.TID 0000.0001) %MON pe_b_mean                    =   2.6869052965023E-07
(PID.TID 0000.0001) %MON ke_max                       =   3.5891195665689E-03
(PID.TID 0000.0001) %MON ke_mean                      =   1.3396898368993E-04
(PID.TID 0000.0001) %MON ke_vol                       =   7.2000000000000E+15
(PID.TID 0000.0001) %MON vort_r_min                   =  -1.5837324049981E-06
(PID.TID 0000.0001) %MON vort_r_max                   =   2.2934928243590E-06
(PID.TID 0000.0001) %MON vort_a_mean                  =   1.0600000000000E-04
(PID.TID 0000.0001) %MON vort_a_sd                    =   3.5375162507299E-06
(PID.TID 0000.0001) %MON vort_p_mean                  =   1.1130000000000E-04
(PID.TID 0000.0001) %MON vort_p_sd                    =   4.1150861354320E-05
(PID.TID 0000.0001) %MON surfExpan_theta_mean         =  -6.6328690688048E-20
(PID.TID 0000.0001) %MON surfExpan_salt_mean          =  -9.9492720235301E-20
(PID.TID 0000.0001) // =======================================================
(PID.TID 0000.0001) // End MONITOR dynamic field statistics
(PID.TID 0000.0001) // =======================================================
 cg2d: Sum(rhs),rhsMax =  -7.59819812036631E-04  1.41354928184083E-01
 cg2d: Sum(rhs),rhsMax =  -7.60773083415298E-04  1.41342492141135E-01
 cg2d: Sum(rhs),rhsMax =  -7.61712387394265E-04  1.41330052192861E-01
 cg2d: Sum(rhs),rhsMax =  -7.62637708406637E-04  1.41317608361187E-01
 cg2d: Sum(rhs),rhsMax =  -7.63549031096305E-04  1.41305160668049E-01
 cg2d: Sum(rhs),rhsMax =  -7.64446340194023E-04  1.41292709135391E-01
 cg2d: Sum(rhs),rhsMax =  -7.65329620451892E-04  1.41280253785165E-01
 cg2d: Sum(rhs),rhsMax =  -7.66198857237002E-04  1.41267794639332E-01
 cg2d: Sum(rhs),rhsMax =  -7.67054035631952E-04  1.41255331719862E-01
 cg2d: Sum(rhs),rhsMax =  -7.67895141143360E-04  1.41242865048732E-01
 cg2d: Sum(rhs),rhsMax =  -7.68722159303416E-04  1.41230394647928E-01
 cg2d: Sum(rhs),rhsMax =  -7.69535075844457E-04  1.41217920539443E-01
 cg2d: Sum(rhs),rhsMax =  -7.70333876865884E-04  1.41205442745281E-01
 cg2d: Sum(rhs),rhsMax =  -7.71118548342920E-04  1.41192961287450E-01
 cg2d: Sum(rhs),rhsMax =  -7.71889076636297E-04  1.41180476187971E-01
 cg2d: Sum(rhs),rhsMax =  -7.72645448294365E-04  1.41167987468869E-01
 cg2d: Sum(rhs),rhsMax =  -7.73387649833875E-04  1.41155495152178E-01
 cg2d: Sum(rhs),rhsMax =  -7.74115668162093E-04  1.41142999259940E-01
 cg2d: Sum(rhs),rhsMax =  -7.74829490312317E-04  1.41130499814206E-01
 cg2d: Sum(rhs),rhsMax =  -7.75529103592308E-04  1.41117996837034E-01
 cg2d: Sum(rhs),rhsMax =  -7.76214495280498E-04  1.41105490350487E-01
 cg2d: Sum(rhs),rhsMax =  -7.76885653068205E-04  1.41092980376641E-01
 cg2d: Sum(rhs),rhsMax =  -7.77542564633689E-04  1.41080466937576E-01
 cg2d: Sum(rhs),rhsMax =  -7.78185218149287E-04  1.41067950055382E-01
 cg2d: Sum(rhs),rhsMax =  -7.78813601702733E-04  1.41055429752151E-01
 cg2d: Sum(rhs),rhsMax =  -7.79427703638725E-04  1.41042906049991E-01
 cg2d: Sum(rhs),rhsMax =  -7.80027512734976E-04  1.41030378971009E-01
 cg2d: Sum(rhs),rhsMax =  -7.80613017564519E-04  1.41017848537327E-01
 cg2d: Sum(rhs),rhsMax =  -7.81184207258016E-04  1.41005314771068E-01
 cg2d: Sum(rhs),rhsMax =  -7.81741071101950E-04  1.40992777694367E-01
 cg2d: Sum(rhs),rhsMax =  -7.82283598377456E-04  1.40980237329362E-01
 cg2d: Sum(rhs),rhsMax =  -7.82811778980485E-04  1.40967693698201E-01
 cg2d: Sum(rhs),rhsMax =  -7.83325602546727E-04  1.40955146823040E-01
 cg2d: Sum(rhs),rhsMax =  -7.83825059300886E-04  1.40942596726039E-01
 cg2d: Sum(rhs),rhsMax =  -7.84310139636969E-04  1.40930043429367E-01
 cg2d: Sum(rhs),rhsMax =  -7.84780834014035E-04  1.40917486955198E-01
 cg2d: Sum(rhs),rhsMax =  -7.85237133257739E-04  1.40904927325718E-01
 cg2d: Sum(rhs),rhsMax =  -7.85679028420801E-04  1.40892364563113E-01
 cg2d: Sum(rhs),rhsMax =  -7.86106510708835E-04  1.40879798689580E-01
 cg2d: Sum(rhs),rhsMax =  -7.86519571775679E-04  1.40867229727323E-01
 cg2d: Sum(rhs),rhsMax =  -7.86918203314117E-04  1.40854657698550E-01
 cg2d: Sum(rhs),rhsMax =  -7.87302397307880E-04  1.40842082625479E-01
 cg2d: Sum(rhs),rhsMax =  -7.87672146066898E-04  1.40829504530331E-01
 cg2d: Sum(rhs),rhsMax =  -7.88027442180469E-04  1.40816923435337E-01
 cg2d: Sum(rhs),rhsMax =  -7.88368278406839E-04  1.40804339362731E-01
 cg2d: Sum(rhs),rhsMax =  -7.88694647836670E-04  1.40791752334758E-01
 cg2d: Sum(rhs),rhsMax =  -7.89006543796110E-04  1.40779162373665E-01
 cg2d: Sum(rhs),rhsMax =  -7.89303960019230E-04  1.40766569501707E-01
 cg2d: Sum(rhs),rhsMax =  -7.89586890333272E-04  1.40753973741146E-01
 cg2d: Sum(rhs),rhsMax =  -7.89855328951134E-04  1.40741375114249E-01
 cg2d: Sum(rhs),rhsMax =  -7.90109270375497E-04  1.40728773643290E-01
 cg2d: Sum(rhs),rhsMax =  -7.90348709432979E-04  1.40716169350550E-01
 cg2d: Sum(rhs),rhsMax =  -7.90573641328485E-04  1.40703562258314E-01
 cg2d: Sum(rhs),rhsMax =  -7.90784061397174E-04  1.40690952388874E-01
 cg2d: Sum(rhs),rhsMax =  -7.90979965360868E-04  1.40678339764529E-01
 cg2d: Sum(rhs),rhsMax =  -7.91161349403356E-04  1.40665724407582E-01
 cg2d: Sum(rhs),rhsMax =  -7.91328209891490E-04  1.40653106340343E-01
 cg2d: Sum(rhs),rhsMax =  -7.91480543529575E-04  1.40640485585128E-01
 cg2d: Sum(rhs),rhsMax =  -7.91618347464755E-04  1.40627862164258E-01
 cg2d: Sum(rhs),rhsMax =  -7.91741619140481E-04  1.40615236100062E-01
 cg2d: Sum(rhs),rhsMax =  -7.91850356350065E-04  1.40602607414870E-01
 cg2d: Sum(rhs),rhsMax =  -7.91944557348987E-04  1.40589976131022E-01
 cg2d: Sum(rhs),rhsMax =  -7.92024220649023E-04  1.40577342270862E-01
 cg2d: Sum(rhs),rhsMax =  -7.92089345187901E-04  1.40564705856739E-01
 cg2d: Sum(rhs),rhsMax =  -7.92139930375247E-04  1.40552066911008E-01
 cg2d: Sum(rhs),rhsMax =  -7.92175975860166E-04  1.40539425456030E-01
 cg2d: Sum(rhs),rhsMax =  -7.92197481993444E-04  1.40526781514171E-01
 cg2d: Sum(rhs),rhsMax =  -7.92204449188323E-04  1.40514135107800E-01
 cg2d: Sum(rhs),rhsMax =  -7.92196878625804E-04  1.40501486259294E-01
 cg2d: Sum(rhs),rhsMax =  -7.92174771604284E-04  1.40488834991037E-01
 cg2d: Sum(rhs),rhsMax =  -7.92138130203004E-04  1.40476181325412E-01
 cg2d: Sum(rhs),rhsMax =  -7.92086956700026E-04  1.40463525284813E-01
(PID.TID 0000.0001)      cg2d_init_res =   1.24980436956892E-03
(PID.TID 0000.0001)      cg2d_iters(min,last) =      -1      64
(PID.TID 0000.0001)      cg2d_last_res =   8.44710404329125E-08
(PID.TID 0000.0001) // =======================================================
(PID.TID 0000.0001) // Begin MONITOR dynamic field statistics
(PID.TID 0000.0001) // =======================================================
(PID.TID 0000.0001) %MON time_tsnumber                =                  6768
(PID.TID 0000.0001) %MON time_secondsf                =   8.1216000000000E+06
(PID.TID 0000.0001) %MON dynstat_eta_max              =   5.0216516963968E-02
(PID.TID 0000.0001) %MON dynstat_eta_min              =  -1.7556202040675E-02
(PID.TID 0000.0001) %MON dynstat_eta_mean             =   5.5620035862351E-07
(PID.TID 0000.0001) %MON dynstat_eta_sd               =   1.6232274049634E-02
(PID.TID 0000.0001) %MON dynstat_eta_del2             =   1.8568870417150E-05
(PID.TID 0000.0001) %MON dynstat_uvel_max             =   3.0286472489581E-02
(PID.TID 0000.0001) %MON dynstat_uvel_min             =  -1.5778206601039E-02
(PID.TID 0000.0001) %MON dynstat_uvel_mean            =   2.6940275031901E-07
(PID.TID 0000.0001) %MON dynstat_uvel_sd              =   6.0312243012187E-03
(PID.TID 0000.0001) %MON dynstat_uvel_del2            =   7.8242224019373E-06
(PID.TID 0000.0001) %MON dynstat_vvel_max             =   8.4223879041279E-02
(PID.TID 0000.0001) %MON dynstat_vvel_min             =  -3.6437984565983E-02
(PID.TID 0000.0001) %MON dynstat_vvel_mean            =   7.0085590286543E-10
(PID.TID 0000.0001) %MON dynstat_vvel_sd              =   1.5275914755378E-02
(PID.TID 0000.0001) %MON dynstat_vvel_del2            =   7.5357938145897E-05
(PID.TID 0000.0001) %MON dynstat_wvel_max             =   1.6331319752644E-08
(PID.TID 0000.0001) %MON dynstat_wvel_min             =  -1.5442894561565E-08
(PID.TID 0000.0001) %MON dynstat_wvel_mean            =  -2.3889265321486E-21
(PID.TID 0000.0001) %MON dynstat_wvel_sd              =   6.8645391796420E-09
(PID.TID 0000.0001) %MON dynstat_wvel_del2            =   2.9152871046441E-12
(PID.TID 0000.0001) %MON dynstat_theta_max            =   2.0000000000000E+01
(PID.TID 0000.0001) %MON dynstat_theta_min            =   2.0000000000000E+01
(PID.TID 0000.0001) %MON dynstat_theta_mean           =   2.0000000000000E+01
(PID.TID 0000.0001) %MON dynstat_theta_sd             =   0.0000000000000E+00
(PID.TID 0000.0001) %MON dynstat_theta_del2           =   0.0000000000000E+00
(PID.TID 0000.0001) %MON dynstat_salt_max             =   3.0000000000000E+01
(PID.TID 0000.0001) %MON dynstat_salt_min             =   3.0000000000000E+01
(PID.TID 0000.0001) %MON dynstat_salt_mean            =   3.0000000000000E+01
(PID.TID 0000.0001) %MON dynstat_salt_sd              =   0.0000000000000E+00
(PID.TID 0000.0001) %MON dynstat_salt_del2            =   0.0000000000000E+00
(PID.TID 0000.0001) %MON trAdv_CFL_u_max              =   1.8172322056763E-03
(PID.TID 0000.0001) %MON trAdv_CFL_v_max              =   5.0538869252866E-03
(PID.TID 0000.0001) %MON trAdv_CFL_w_max              =   3.9177391953534E-09
(PID.TID 0000.0001) %MON advcfl_uvel_max              =   1.8171883493749E-03
(PID.TID 0000.0001) %MON advcfl_vvel_max              =   5.0534327424768E-03
(PID.TID 0000.0001) %MON advcfl_wvel_max              =   7.8390334812691E-09
(PID.TID 0000.0001) %MON advcfl_W_hf_max              =   0.0000000000000E+00
(PID.TID 0000.0001) %MON pe_b_mean                    =   2.5848047343029E-07
(PID.TID 0000.0001) %MON ke_max                       =   3.5424318741818E-03
(PID.TID 0000.0001) %MON ke_mean                      =   1.3261687547674E-04
(PID.TID 0000.0001) %MON ke_vol                       =   7.2000000000000E+15
(PID.TID 0000.0001) %MON vort_r_min                   =  -1.5806641211021E-06
(PID.TID 0000.0001) %MON vort_r_max                   =   2.2771955761749E-06
(PID.TID 0000.0001) %MON vort_a_mean                  =   1.0600000000000E-04
(PID.TID 0000.0001) %MON vort_a_sd                    =   3.5374025323003E-06
(PID.TID 0000.0001) %MON vort_p_mean                  =   1.1130000000000E-04
(PID.TID 0000.0001) %MON vort_p_sd                    =   4.1150868291851E-05
(PID.TID 0000.0001) %MON surfExpan_theta_mean         =  -4.7778472536366E-20
(PID.TID 0000.0001) %MON surfExpan_salt_mean          =  -7.1668024601321E-20
(PID.TID 0000.0001) // =======================================================
(PID.TID 0000.0001) // End MONITOR dynamic field statistics
(PID.TID 0000.0001) // =======================================================
 cg2d: Sum(rhs),rhsMax =  -7.92021254003143E-04  1.40450866891635E-01
 cg2d: Sum(rhs),rhsMax =  -7.91941025579143E-04  1.40438206168281E-01
 cg2d: Sum(rhs),rhsMax =  -7.91846275225328E-04  1.40425543137157E-01
 cg2d: Sum(rhs),rhsMax =  -7.91737007221963E-04  1.40412877820675E-01
 cg2d: Sum(rhs),rhsMax =  -7.91613226538732E-04  1.40400210241250E-01
 cg2d: Sum(rhs),rhsMax =  -7.91474938609060E-04  1.40387540421305E-01
 cg2d: Sum(rhs),rhsMax =  -7.91322149458240E-04  1.40374868383264E-01
 cg2d: Sum(rhs),rhsMax =  -7.91154865602059E-04  1.40362194149558E-01
 cg2d: Sum(rhs),rhsMax =  -7.90973094199971E-04  1.40349517742622E-01
 cg2d: Sum(rhs),rhsMax =  -7.90776842982778E-04  1.40336839184896E-01
 cg2d: Sum(rhs),rhsMax =  -7.90566120276426E-04  1.40324158498824E-01
 cg2d: Sum(rhs),rhsMax =  -7.90340935059738E-04  1.40311475706853E-01
 cg2d: Sum(rhs),rhsMax =  -7.90101296953675E-04  1.40298790831438E-01
 cg2d: Sum(rhs),rhsMax =  -7.89847216227660E-04  1.40286103895035E-01
 cg2d: Sum(rhs),rhsMax =  -7.89578703849432E-04  1.40273414920106E-01
 cg2d: Sum(rhs),rhsMax =  -7.89295771315382E-04  1.40260723929117E-01
 cg2d: Sum(rhs),rhsMax =  -7.88998431074641E-04  1.40248030944537E-01
 cg2d: Sum(rhs),rhsMax =  -7.88686696140211E-04  1.40235335988841E-01
 cg2d: Sum(rhs),rhsMax =  -7.88360580339800E-04  1.40222639084507E-01
 cg2d: Sum(rhs),rhsMax =  -7.88020098195183E-04  1.40209940254017E-01
 cg2d: Sum(rhs),rhsMax =  -7.87665265127625E-04  1.40197239519857E-01
 cg2d: Sum(rhs),rhsMax =  -7.87296097138825E-04  1.40184536904517E-01
 cg2d: Sum(rhs),rhsMax =  -7.86912611236798E-04  1.40171832430491E-01
 cg2d: Sum(rhs),rhsMax =  -7.86514825173680E-04  1.40159126120277E-01
 cg2d: Sum(rhs),rhsMax =  -7.86102757573789E-04  1.40146417996376E-01
 cg2d: Sum(rhs),rhsMax =  -7.85676427854061E-04  1.40133708081293E-01
 cg2d: Sum(rhs),rhsMax =  -7.85235856476927E-04  1.40120996397538E-01
 cg2d: Sum(rhs),rhsMax =  -7.84781064702615E-04  1.40108282967622E-01
 cg2d: Sum(rhs),rhsMax =  -7.84312074683124E-04  1.40095567814062E-01
 cg2d: Sum(rhs),rhsMax =  -7.83828909516042E-04  1.40082850959376E-01
 cg2d: Sum(rhs),rhsMax =  -7.83331593268611E-04  1.40070132426089E-01
 cg2d: Sum(rhs),rhsMax =  -7.82820151094768E-04  1.40057412236725E-01
 cg2d: Sum(rhs),rhsMax =  -7.82294608985734E-04  1.40044690413815E-01
 cg2d: Sum(rhs),rhsMax =  -7.81754993960323E-04  1.40031966979892E-01
 cg2d: Sum(rhs),rhsMax =  -7.81201333929919E-04  1.40019241957491E-01
 cg2d: Sum(rhs),rhsMax =  -7.80633658178876E-04  1.40006515369152E-01
 cg2d: Sum(rhs),rhsMax =  -7.80051996724871E-04  1.39993787237417E-01
 cg2d: Sum(rhs),rhsMax =  -7.79456380670108E-04  1.39981057584832E-01
 cg2d: Sum(rhs),rhsMax =  -7.78846842336740E-04  1.39968326433945E-01
 cg2d: Sum(rhs),rhsMax =  -7.78223414995457E-04  1.39955593807308E-01
 cg2d: Sum(rhs),rhsMax =  -7.77586132915978E-04  1.39942859727474E-01
 cg2d: Sum(rhs),rhsMax =  -7.76935031543763E-04  1.39930124217001E-01
 cg2d: Sum(rhs),rhsMax =  -7.76270147405098E-04  1.39917387298450E-01
 cg2d: Sum(rhs),rhsMax =  -7.75591518068714E-04  1.39904648994382E-01
 cg2d: Sum(rhs),rhsMax =  -7.74899182194411E-04  1.39891909327365E-01
 cg2d: Sum(rhs),rhsMax =  -7.74193179376060E-04  1.39879168319964E-01
 cg2d: Sum(rhs),rhsMax =  -7.73473550395727E-04  1.39866425994753E-01
 cg2d: Sum(rhs),rhsMax =  -7.72740336996269E-04  1.39853682374302E-01
 cg2d: Sum(rhs),rhsMax =  -7.71993582012097E-04  1.39840937481190E-01
 cg2d: Sum(rhs),rhsMax =  -7.71233329123173E-04  1.39828191337994E-01
 cg2d: Sum(rhs),rhsMax =  -7.70459623154278E-04  1.39815443967295E-01
 cg2d: Sum(rhs),rhsMax =  -7.69672509689613E-04  1.39802695391675E-01
 cg2d: Sum(rhs),rhsMax =  -7.68872035271382E-04  1.39789945633721E-01
 cg2d: Sum(rhs),rhsMax =  -7.68058247366440E-04  1.39777194716021E-01
 cg2d: Sum(rhs),rhsMax =  -7.67231194082688E-04  1.39764442661164E-01
 cg2d: Sum(rhs),rhsMax =  -7.66390924470625E-04  1.39751689491742E-01
 cg2d: Sum(rhs),rhsMax =  -7.65537488138304E-04  1.39738935230350E-01
 cg2d: Sum(rhs),rhsMax =  -7.64670935333894E-04  1.39726179899586E-01
 cg2d: Sum(rhs),rhsMax =  -7.63791316962662E-04  1.39713423522046E-01
 cg2d: Sum(rhs),rhsMax =  -7.62898684208726E-04  1.39700666120331E-01
 cg2d: Sum(rhs),rhsMax =  -7.61993088733170E-04  1.39687907717044E-01
 cg2d: Sum(rhs),rhsMax =  -7.61074582618912E-04  1.39675148334791E-01
 cg2d: Sum(rhs),rhsMax =  -7.60177613835303E-04  1.39662388403110E-01
 cg2d: Sum(rhs),rhsMax =  -7.59268484295236E-04  1.39649627133267E-01
 cg2d: Sum(rhs),rhsMax =  -7.58347235431727E-04  1.39636864943427E-01
 cg2d: Sum(rhs),rhsMax =  -7.57413916430383E-04  1.39624101868228E-01
 cg2d: Sum(rhs),rhsMax =  -7.56468573955680E-04  1.39611337926795E-01
 cg2d: Sum(rhs),rhsMax =  -7.55511263011546E-04  1.39598573142607E-01
 cg2d: Sum(rhs),rhsMax =  -7.54542041265548E-04  1.39585807538605E-01
 cg2d: Sum(rhs),rhsMax =  -7.53560965665286E-04  1.39573041137056E-01
 cg2d: Sum(rhs),rhsMax =  -7.52568090808774E-04  1.39560273960044E-01
 cg2d: Sum(rhs),rhsMax =  -7.51563468717471E-04  1.39547506029899E-01
(PID.TID 0000.0001)      cg2d_init_res =   1.25060333553812E-03
(PID.TID 0000.0001)      cg2d_iters(min,last) =      -1      65
(PID.TID 0000.0001)      cg2d_last_res =   9.57550050140383E-08
(PID.TID 0000.0001) // =======================================================
(PID.TID 0000.0001) // Begin MONITOR dynamic field statistics
(PID.TID 0000.0001) // =======================================================
(PID.TID 0000.0001) %MON time_tsnumber                =                  6840
(PID.TID 0000.0001) %MON time_secondsf                =   8.2080000000000E+06
(PID.TID 0000.0001) %MON dynstat_eta_max              =   4.9606118932840E-02
(PID.TID 0000.0001) %MON dynstat_eta_min              =  -1.7595353763504E-02
(PID.TID 0000.0001) %MON dynstat_eta_mean             =   5.2363699686571E-07
(PID.TID 0000.0001) %MON dynstat_eta_sd               =   1.5925014802887E-02
(PID.TID 0000.0001) %MON dynstat_eta_del2             =   1.8532897527756E-05
(PID.TID 0000.0001) %MON dynstat_uvel_max             =   3.0231187040503E-02
(PID.TID 0000.0001) %MON dynstat_uvel_min             =  -1.5758389757013E-02
(PID.TID 0000.0001) %MON dynstat_uvel_mean            =   2.6946448726369E-07
(PID.TID 0000.0001) %MON dynstat_uvel_sd              =   5.9877505169862E-03
(PID.TID 0000.0001) %MON dynstat_uvel_del2            =   7.7971222937193E-06
(PID.TID 0000.0001) %MON dynstat_vvel_max             =   8.3673527150201E-02
(PID.TID 0000.0001) %MON dynstat_vvel_min             =  -3.6571542824600E-02
(PID.TID 0000.0001) %MON dynstat_vvel_mean            =  -3.1111645266429E-10
(PID.TID 0000.0001) %MON dynstat_vvel_sd              =   1.5206195700065E-02
(PID.TID 0000.0001) %MON dynstat_vvel_del2            =   7.5172128369982E-05
(PID.TID 0000.0001) %MON dynstat_wvel_max             =   1.6878044985060E-08
(PID.TID 0000.0001) %MON dynstat_wvel_min             =  -1.4669445753680E-08
(PID.TID 0000.0001) %MON dynstat_wvel_mean            =   2.2374627582798E-22
(PID.TID 0000.0001) %MON dynstat_wvel_sd              =   6.8496863886304E-09
(PID.TID 0000.0001) %MON dynstat_wvel_del2            =   2.9109406788234E-12
(PID.TID 0000.0001) %MON dynstat_theta_max            =   2.0000000000000E+01
(PID.TID 0000.0001) %MON dynstat_theta_min            =   2.0000000000000E+01
(PID.TID 0000.0001) %MON dynstat_theta_mean           =   2.0000000000000E+01
(PID.TID 0000.0001) %MON dynstat_theta_sd             =   0.0000000000000E+00
(PID.TID 0000.0001) %MON dynstat_theta_del2           =   0.0000000000000E+00
(PID.TID 0000.0001) %MON dynstat_salt_max             =   3.0000000000000E+01
(PID.TID 0000.0001) %MON dynstat_salt_min             =   3.0000000000000E+01
(PID.TID 0000.0001) %MON dynstat_salt_mean            =   3.0000000000000E+01
(PID.TID 0000.0001) %MON dynstat_salt_sd              =   0.0000000000000E+00
(PID.TID 0000.0001) %MON dynstat_salt_del2            =   0.0000000000000E+00
(PID.TID 0000.0001) %MON trAdv_CFL_u_max              =   1.8139192505177E-03
(PID.TID 0000.0001) %MON trAdv_CFL_v_max              =   5.0208739136190E-03
(PID.TID 0000.0001) %MON trAdv_CFL_w_max              =   4.0488754256861E-09
(PID.TID 0000.0001) %MON advcfl_uvel_max              =   1.8138712224302E-03
(PID.TID 0000.0001) %MON advcfl_vvel_max              =   5.0204116290120E-03
(PID.TID 0000.0001) %MON advcfl_wvel_max              =   8.1014615928289E-09
(PID.TID 0000.0001) %MON advcfl_W_hf_max              =   0.0000000000000E+00
(PID.TID 0000.0001) %MON pe_b_mean                    =   2.4878758090817E-07
(PID.TID 0000.0001) %MON ke_max                       =   3.4961100724201E-03
(PID.TID 0000.0001) %MON ke_mean                      =   1.3131509246419E-04
(PID.TID 0000.0001) %MON ke_vol                       =   7.2000000000000E+15
(PID.TID 0000.0001) %MON vort_r_min                   =  -1.5770034504883E-06
(PID.TID 0000.0001) %MON vort_r_max                   =   2.2608457236633E-06
(PID.TID 0000.0001) %MON vort_a_mean                  =   1.0600000000000E-04
(PID.TID 0000.0001) %MON vort_a_sd                    =   3.5372855263093E-06
(PID.TID 0000.0001) %MON vort_p_mean                  =   1.1130000000000E-04
(PID.TID 0000.0001) %MON vort_p_sd                    =   4.1150888915424E-05
(PID.TID 0000.0001) %MON surfExpan_theta_mean         =   4.4714448193477E-21
(PID.TID 0000.0001) %MON surfExpan_salt_mean          =   6.7069300730477E-21
(PID.TID 0000.0001) // =======================================================
(PID.TID 0000.0001) // End MONITOR dynamic field statistics
(PID.TID 0000.0001) // =======================================================
 cg2d: Sum(rhs),rhsMax =  -7.50547149407912E-04  1.39534737369244E-01
 cg2d: Sum(rhs),rhsMax =  -7.49519181336997E-04  1.39521968000852E-01
 cg2d: Sum(rhs),rhsMax =  -7.48479611877172E-04  1.39509197947497E-01
 cg2d: Sum(rhs),rhsMax =  -7.47428487163878E-04  1.39496427231872E-01
 cg2d: Sum(rhs),rhsMax =  -7.46365851823658E-04  1.39483655876607E-01
 cg2d: Sum(rhs),rhsMax =  -7.45291748676452E-04  1.39470883904292E-01
 cg2d: Sum(rhs),rhsMax =  -7.44206218142701E-04  1.39458111337519E-01
 cg2d: Sum(rhs),rhsMax =  -7.43109298432662E-04  1.39445338198904E-01
 cg2d: Sum(rhs),rhsMax =  -7.42001025205860E-04  1.39432564511078E-01
 cg2d: Sum(rhs),rhsMax =  -7.40934647094968E-04  1.39419789875277E-01
 cg2d: Sum(rhs),rhsMax =  -7.39857757622715E-04  1.39407015147722E-01
 cg2d: Sum(rhs),rhsMax =  -7.38770426433889E-04  1.39394239941223E-01
 cg2d: Sum(rhs),rhsMax =  -7.37672651779588E-04  1.39381464276662E-01
 cg2d: Sum(rhs),rhsMax =  -7.36564450151409E-04  1.39368688175705E-01
 cg2d: Sum(rhs),rhsMax =  -7.35445846049638E-04  1.39355911662130E-01
 cg2d: Sum(rhs),rhsMax =  -7.34316865566355E-04  1.39343134759001E-01
 cg2d: Sum(rhs),rhsMax =  -7.33177531836531E-04  1.39330357488434E-01
 cg2d: Sum(rhs),rhsMax =  -7.32027863130443E-04  1.39317579872387E-01
 cg2d: Sum(rhs),rhsMax =  -7.30867872615827E-04  1.39304801933148E-01
 cg2d: Sum(rhs),rhsMax =  -7.29697569633161E-04  1.39292023693352E-01
 cg2d: Sum(rhs),rhsMax =  -7.28516960046868E-04  1.39279245175811E-01
 cg2d: Sum(rhs),rhsMax =  -7.27326047691327E-04  1.39266466403334E-01
 cg2d: Sum(rhs),rhsMax =  -7.26124834037772E-04  1.39253687398649E-01
 cg2d: Sum(rhs),rhsMax =  -7.24913318250691E-04  1.39240908184402E-01
 cg2d: Sum(rhs),rhsMax =  -7.23764942594443E-04  1.39228129069170E-01
 cg2d: Sum(rhs),rhsMax =  -7.22607297915485E-04  1.39215349506674E-01
 cg2d: Sum(rhs),rhsMax =  -7.21440330743043E-04  1.39202569793484E-01
 cg2d: Sum(rhs),rhsMax =  -7.20264029960867E-04  1.39189789961577E-01
 cg2d: Sum(rhs),rhsMax =  -7.19078384499755E-04  1.39177010032483E-01
 cg2d: Sum(rhs),rhsMax =  -7.17883393580552E-04  1.39164230030843E-01
 cg2d: Sum(rhs),rhsMax =  -7.16679059152779E-04  1.39151449979575E-01
 cg2d: Sum(rhs),rhsMax =  -7.15932697539398E-04  1.39138669681605E-01
 cg2d: Sum(rhs),rhsMax =  -7.15182709103496E-04  1.39125889582487E-01
 cg2d: Sum(rhs),rhsMax =  -7.14429088545419E-04  1.39113109492675E-01
 cg2d: Sum(rhs),rhsMax =  -7.13671900246045E-04  1.39100329426419E-01
 cg2d: Sum(rhs),rhsMax =  -7.12911216643660E-04  1.39087549418936E-01
 cg2d: Sum(rhs),rhsMax =  -7.12147097340640E-04  1.39074769504524E-01
 cg2d: Sum(rhs),rhsMax =  -7.11483785000097E-04  1.39061989911525E-01
 cg2d: Sum(rhs),rhsMax =  -7.10818012222632E-04  1.39049210251289E-01
 cg2d: Sum(rhs),rhsMax =  -7.10149886023015E-04  1.39036430733573E-01
 cg2d: Sum(rhs),rhsMax =  -7.09479434981969E-04  1.39023651387899E-01
 cg2d: Sum(rhs),rhsMax =  -7.08806712308004E-04  1.39010872238123E-01
 cg2d: Sum(rhs),rhsMax =  -7.08131767940538E-04  1.38998093309605E-01
 cg2d: Sum(rhs),rhsMax =  -7.07454645244385E-04  1.38985314625699E-01
 cg2d: Sum(rhs),rhsMax =  -7.06775382845327E-04  1.38972536208440E-01
 cg2d: Sum(rhs),rhsMax =  -7.06094017480148E-04  1.38959758079672E-01
 cg2d: Sum(rhs),rhsMax =  -7.05410586015910E-04  1.38946980261542E-01
 cg2d: Sum(rhs),rhsMax =  -7.04725126391090E-04  1.38934202776536E-01
 cg2d: Sum(rhs),rhsMax =  -7.04037022044064E-04  1.38921554891866E-01
 cg2d: Sum(rhs),rhsMax =  -7.03343423983168E-04  1.38909607111210E-01
 cg2d: Sum(rhs),rhsMax =  -7.02647921820730E-04  1.38897658992984E-01
 cg2d: Sum(rhs),rhsMax =  -7.01950551312632E-04  1.38885710559078E-01
 cg2d: Sum(rhs),rhsMax =  -7.01251346847170E-04  1.38873761831323E-01
 cg2d: Sum(rhs),rhsMax =  -7.00550341915336E-04  1.38861812831524E-01
 cg2d: Sum(rhs),rhsMax =  -6.99847569403161E-04  1.38849863581485E-01
 cg2d: Sum(rhs),rhsMax =  -6.99143061531953E-04  1.38837914103024E-01
 cg2d: Sum(rhs),rhsMax =  -6.98436849932344E-04  1.38825964417978E-01
 cg2d: Sum(rhs),rhsMax =  -6.97728965347044E-04  1.38814014548188E-01
 cg2d: Sum(rhs),rhsMax =  -6.97019437980246E-04  1.38802064515495E-01
 cg2d: Sum(rhs),rhsMax =  -6.96308297047968E-04  1.38790114341736E-01
 cg2d: Sum(rhs),rhsMax =  -6.95595571294480E-04  1.38778164048739E-01
 cg2d: Sum(rhs),rhsMax =  -6.94881288488665E-04  1.38766213658330E-01
 cg2d: Sum(rhs),rhsMax =  -6.94165475797355E-04  1.38754263192331E-01
 cg2d: Sum(rhs),rhsMax =  -6.93448159841603E-04  1.38742312672566E-01
 cg2d: Sum(rhs),rhsMax =  -6.92729366369660E-04  1.38730362120855E-01
 cg2d: Sum(rhs),rhsMax =  -6.92009120594484E-04  1.38718411559022E-01
 cg2d: Sum(rhs),rhsMax =  -6.91287447105864E-04  1.38706461008886E-01
 cg2d: Sum(rhs),rhsMax =  -6.90564369708495E-04  1.38694510492267E-01
 cg2d: Sum(rhs),rhsMax =  -6.89947971423899E-04  1.38682560051091E-01
 cg2d: Sum(rhs),rhsMax =  -6.89330665358851E-04  1.38670609682168E-01
 cg2d: Sum(rhs),rhsMax =  -6.88712442181817E-04  1.38658659392979E-01
 cg2d: Sum(rhs),rhsMax =  -6.88093354881401E-04  1.38646709222752E-01
(PID.TID 0000.0001)      cg2d_init_res =   1.25104917705222E-03
(PID.TID 0000.0001)      cg2d_iters(min,last) =      -1      73
(PID.TID 0000.0001)      cg2d_last_res =   8.27595449351763E-08
(PID.TID 0000.0001) // =======================================================
(PID.TID 0000.0001) // Begin MONITOR dynamic field statistics
(PID.TID 0000.0001) // =======================================================
(PID.TID 0000.0001) %MON time_tsnumber                =                  6912
(PID.TID 0000.0001) %MON time_secondsf                =   8.2944000000000E+06
(PID.TID 0000.0001) %MON dynstat_eta_max              =   4.8947689772116E-02
(PID.TID 0000.0001) %MON dynstat_eta_min              =  -1.7681311083819E-02
(PID.TID 0000.0001) %MON dynstat_eta_mean             =   4.7653856604052E-07
(PID.TID 0000.0001) %MON dynstat_eta_sd               =   1.5632962334172E-02
(PID.TID 0000.0001) %MON dynstat_eta_del2             =   1.8494327371762E-05
(PID.TID 0000.0001) %MON dynstat_uvel_max             =   3.0171635264228E-02
(PID.TID 0000.0001) %MON dynstat_uvel_min             =  -1.5735287012816E-02
(PID.TID 0000.0001) %MON dynstat_uvel_mean            =   2.6590607736911E-07
(PID.TID 0000.0001) %MON dynstat_uvel_sd              =   5.9542624947721E-03
(PID.TID 0000.0001) %MON dynstat_uvel_del2            =   7.7733022296891E-06
(PID.TID 0000.0001) %MON dynstat_vvel_max             =   8.3115927584087E-02
(PID.TID 0000.0001) %MON dynstat_vvel_min             =  -3.6675091527517E-02
(PID.TID 0000.0001) %MON dynstat_vvel_mean            =  -1.3529144927424E-09
(PID.TID 0000.0001) %MON dynstat_vvel_sd              =   1.5136511418338E-02
(PID.TID 0000.0001) %MON dynstat_vvel_del2            =   7.4973799362165E-05
(PID.TID 0000.0001) %MON dynstat_wvel_max             =   1.7349960929569E-08
(PID.TID 0000.0001) %MON dynstat_wvel_min             =  -1.3802674817853E-08
(PID.TID 0000.0001) %MON dynstat_wvel_mean            =   3.8444341043942E-23
(PID.TID 0000.0001) %MON dynstat_wvel_sd              =   6.8323324738419E-09
(PID.TID 0000.0001) %MON dynstat_wvel_del2            =   2.8923312641961E-12
(PID.TID 0000.0001) %MON dynstat_theta_max            =   2.0000000000000E+01
(PID.TID 0000.0001) %MON dynstat_theta_min            =   2.0000000000000E+01
(PID.TID 0000.0001) %MON dynstat_theta_mean           =   2.0000000000000E+01
(PID.TID 0000.0001) %MON dynstat_theta_sd             =   0.0000000000000E+00
(PID.TID 0000.0001) %MON dynstat_theta_del2           =   0.0000000000000E+00
(PID.TID 0000.0001) %MON dynstat_salt_max             =   3.0000000000000E+01
(PID.TID 0000.0001) %MON dynstat_salt_min             =   3.0000000000000E+01
(PID.TID 0000.0001) %MON dynstat_salt_mean            =   3.0000000000000E+01
(PID.TID 0000.0001) %MON dynstat_salt_sd              =   0.0000000000000E+00
(PID.TID 0000.0001) %MON dynstat_salt_del2            =   0.0000000000000E+00
(PID.TID 0000.0001) %MON trAdv_CFL_u_max              =   1.8103490925972E-03
(PID.TID 0000.0001) %MON trAdv_CFL_v_max              =   4.9874219619121E-03
(PID.TID 0000.0001) %MON trAdv_CFL_w_max              =   4.1620571807027E-09
(PID.TID 0000.0001) %MON advcfl_uvel_max              =   1.8102981158537E-03
(PID.TID 0000.0001) %MON advcfl_vvel_max              =   4.9869556550452E-03
(PID.TID 0000.0001) %MON advcfl_wvel_max              =   8.3279812461929E-09
(PID.TID 0000.0001) %MON advcfl_W_hf_max              =   0.0000000000000E+00
(PID.TID 0000.0001) %MON pe_b_mean                    =   2.3974611084891E-07
(PID.TID 0000.0001) %MON ke_max                       =   3.4511646350066E-03
(PID.TID 0000.0001) %MON ke_mean                      =   1.3007888309038E-04
(PID.TID 0000.0001) %MON ke_vol                       =   7.2000000000000E+15
(PID.TID 0000.0001) %MON vort_r_min                   =  -1.5740659317512E-06
(PID.TID 0000.0001) %MON vort_r_max                   =   2.2445979313089E-06
(PID.TID 0000.0001) %MON vort_a_mean                  =   1.0600000000000E-04
(PID.TID 0000.0001) %MON vort_a_sd                    =   3.5371665170021E-06
(PID.TID 0000.0001) %MON vort_p_mean                  =   1.1130000000000E-04
(PID.TID 0000.0001) %MON vort_p_sd                    =   4.1150923020699E-05
(PID.TID 0000.0001) %MON surfExpan_theta_mean         =   7.6967568121391E-22
(PID.TID 0000.0001) %MON surfExpan_salt_mean          =   1.1528161141743E-21
(PID.TID 0000.0001) // =======================================================
(PID.TID 0000.0001) // End MONITOR dynamic field statistics
(PID.TID 0000.0001) // =======================================================
 cg2d: Sum(rhs),rhsMax =  -6.87473428466352E-04  1.38634759195954E-01
 cg2d: Sum(rhs),rhsMax =  -6.86852677886966E-04  1.38622809335471E-01
 cg2d: Sum(rhs),rhsMax =  -6.86231111375173E-04  1.38610859662446E-01
 cg2d: Sum(rhs),rhsMax =  -6.85608735780831E-04  1.38598910197763E-01
 cg2d: Sum(rhs),rhsMax =  -6.84985559429222E-04  1.38586960962667E-01
 cg2d: Sum(rhs),rhsMax =  -6.84361593206385E-04  1.38575011978824E-01
 cg2d: Sum(rhs),rhsMax =  -6.83736849428552E-04  1.38563063268121E-01
 cg2d: Sum(rhs),rhsMax =  -6.83111340619410E-04  1.38551114852499E-01
 cg2d: Sum(rhs),rhsMax =  -6.82485078375080E-04  1.38539166753851E-01
 cg2d: Sum(rhs),rhsMax =  -6.81858072912639E-04  1.38527218994007E-01
 cg2d: Sum(rhs),rhsMax =  -6.81230333999333E-04  1.38515271594748E-01
 cg2d: Sum(rhs),rhsMax =  -6.80601870596433E-04  1.38503324577827E-01
 cg2d: Sum(rhs),rhsMax =  -6.79972691599545E-04  1.38491377965002E-01
 cg2d: Sum(rhs),rhsMax =  -6.79342805743456E-04  1.38479431778037E-01
 cg2d: Sum(rhs),rhsMax =  -6.78712221657352E-04  1.38467486038708E-01
 cg2d: Sum(rhs),rhsMax =  -6.78080947643597E-04  1.38455540768793E-01
 cg2d: Sum(rhs),rhsMax =  -6.77448991782559E-04  1.38443595990070E-01
 cg2d: Sum(rhs),rhsMax =  -6.76816361788626E-04  1.38431651724309E-01
 cg2d: Sum(rhs),rhsMax =  -6.76183065082578E-04  1.38419707993276E-01
 cg2d: Sum(rhs),rhsMax =  -6.75549108749801E-04  1.38407764818730E-01
 cg2d: Sum(rhs),rhsMax =  -6.74914499643221E-04  1.38395822222426E-01
 cg2d: Sum(rhs),rhsMax =  -6.74279244465568E-04  1.38383880226120E-01
 cg2d: Sum(rhs),rhsMax =  -6.73643349611875E-04  1.38371938851563E-01
 cg2d: Sum(rhs),rhsMax =  -6.73006821307035E-04  1.38359998120504E-01
 cg2d: Sum(rhs),rhsMax =  -6.72369665506079E-04  1.38348058054691E-01
 cg2d: Sum(rhs),rhsMax =  -6.71731887944511E-04  1.38336118675865E-01
 cg2d: Sum(rhs),rhsMax =  -6.71093494067128E-04  1.38324180005766E-01
 cg2d: Sum(rhs),rhsMax =  -6.70454489248010E-04  1.38312242066131E-01
 cg2d: Sum(rhs),rhsMax =  -6.69814878660402E-04  1.38300304878690E-01
 cg2d: Sum(rhs),rhsMax =  -6.69174667157350E-04  1.38288368465173E-01
 cg2d: Sum(rhs),rhsMax =  -6.68533859469373E-04  1.38276432847305E-01
 cg2d: Sum(rhs),rhsMax =  -6.67892460243409E-04  1.38264498046808E-01
 cg2d: Sum(rhs),rhsMax =  -6.67250473784471E-04  1.38252564085400E-01
 cg2d: Sum(rhs),rhsMax =  -6.66607904293388E-04  1.38240630984795E-01
 cg2d: Sum(rhs),rhsMax =  -6.65964755853621E-04  1.38228698766705E-01
 cg2d: Sum(rhs),rhsMax =  -6.65321032271695E-04  1.38216767452836E-01
 cg2d: Sum(rhs),rhsMax =  -6.64676737260359E-04  1.38204837064892E-01
 cg2d: Sum(rhs),rhsMax =  -6.64031874461864E-04  1.38192907624571E-01
 cg2d: Sum(rhs),rhsMax =  -6.63386447196490E-04  1.38180979153570E-01
 cg2d: Sum(rhs),rhsMax =  -6.62740458764254E-04  1.38169051673579E-01
 cg2d: Sum(rhs),rhsMax =  -6.62093912304591E-04  1.38157125206285E-01
 cg2d: Sum(rhs),rhsMax =  -6.61446810735652E-04  1.38145199773374E-01
 cg2d: Sum(rhs),rhsMax =  -6.60799157016059E-04  1.38133275396521E-01
 cg2d: Sum(rhs),rhsMax =  -6.60150953746472E-04  1.38121352097404E-01
 cg2d: Sum(rhs),rhsMax =  -6.59502203554584E-04  1.38109429897691E-01
 cg2d: Sum(rhs),rhsMax =  -6.58852908953662E-04  1.38097508819052E-01
 cg2d: Sum(rhs),rhsMax =  -6.58203072244395E-04  1.38085588883146E-01
 cg2d: Sum(rhs),rhsMax =  -6.57552695738401E-04  1.38073670111632E-01
 cg2d: Sum(rhs),rhsMax =  -6.56901781483845E-04  1.38061752526163E-01
 cg2d: Sum(rhs),rhsMax =  -6.56250331529125E-04  1.38049836148387E-01
 cg2d: Sum(rhs),rhsMax =  -6.55598347830694E-04  1.38037920999948E-01
 cg2d: Sum(rhs),rhsMax =  -6.54945832132211E-04  1.38026007102487E-01
 cg2d: Sum(rhs),rhsMax =  -6.54292786274070E-04  1.38014094477637E-01
 cg2d: Sum(rhs),rhsMax =  -6.53639211705447E-04  1.38002183147030E-01
 cg2d: Sum(rhs),rhsMax =  -6.52985110126191E-04  1.37990273132290E-01
 cg2d: Sum(rhs),rhsMax =  -6.52330482883395E-04  1.37978364455039E-01
 cg2d: Sum(rhs),rhsMax =  -6.51675331275046E-04  1.37966457136892E-01
 cg2d: Sum(rhs),rhsMax =  -6.51019656714954E-04  1.37954551199460E-01
 cg2d: Sum(rhs),rhsMax =  -6.50363460321992E-04  1.37942646664348E-01
 cg2d: Sum(rhs),rhsMax =  -6.49706743107617E-04  1.37930743553158E-01
 cg2d: Sum(rhs),rhsMax =  -6.49049506198730E-04  1.37918841887486E-01
 cg2d: Sum(rhs),rhsMax =  -6.48391750595174E-04  1.37906941688922E-01
 cg2d: Sum(rhs),rhsMax =  -6.47733477078130E-04  1.37895042979052E-01
 cg2d: Sum(rhs),rhsMax =  -6.47074686471073E-04  1.37883145779457E-01
 cg2d: Sum(rhs),rhsMax =  -6.46415379573356E-04  1.37871250111710E-01
 cg2d: Sum(rhs),rhsMax =  -6.45755557151973E-04  1.37859355997384E-01
 cg2d: Sum(rhs),rhsMax =  -6.45095219678846E-04  1.37847463458040E-01
 cg2d: Sum(rhs),rhsMax =  -6.44518444644473E-04  1.37835572553841E-01
 cg2d: Sum(rhs),rhsMax =  -6.43941194234675E-04  1.37823683234038E-01
 cg2d: Sum(rhs),rhsMax =  -6.43363540476578E-04  1.37811795545352E-01
 cg2d: Sum(rhs),rhsMax =  -6.42785479895238E-04  1.37799909517189E-01
 cg2d: Sum(rhs),rhsMax =  -6.42207016838429E-04  1.37788025172394E-01
(PID.TID 0000.0001)      cg2d_init_res =   1.25103426917807E-03
(PID.TID 0000.0001)      cg2d_iters(min,last) =      -1      74
(PID.TID 0000.0001)      cg2d_last_res =   8.47810669061489E-08
(PID.TID 0000.0001) // =======================================================
(PID.TID 0000.0001) // Begin MONITOR dynamic field statistics
(PID.TID 0000.0001) // =======================================================
(PID.TID 0000.0001) %MON time_tsnumber                =                  6984
(PID.TID 0000.0001) %MON time_secondsf                =   8.3808000000000E+06
(PID.TID 0000.0001) %MON dynstat_eta_max              =   4.8283808432603E-02
(PID.TID 0000.0001) %MON dynstat_eta_min              =  -1.7813451283779E-02
(PID.TID 0000.0001) %MON dynstat_eta_mean             =   4.4200525803220E-07
(PID.TID 0000.0001) %MON dynstat_eta_sd               =   1.5361130169176E-02
(PID.TID 0000.0001) %MON dynstat_eta_del2             =   1.8453422916844E-05
(PID.TID 0000.0001) %MON dynstat_uvel_max             =   3.0109307293294E-02
(PID.TID 0000.0001) %MON dynstat_uvel_min             =  -1.5710235857843E-02
(PID.TID 0000.0001) %MON dynstat_uvel_mean            =   2.5877523663162E-07
(PID.TID 0000.0001) %MON dynstat_uvel_sd              =   5.9316351987967E-03
(PID.TID 0000.0001) %MON dynstat_uvel_del2            =   7.7535590633376E-06
(PID.TID 0000.0001) %MON dynstat_vvel_max             =   8.2556009911284E-02
(PID.TID 0000.0001) %MON dynstat_vvel_min             =  -3.6746527938262E-02
(PID.TID 0000.0001) %MON dynstat_vvel_mean            =  -2.4064196628622E-09
(PID.TID 0000.0001) %MON dynstat_vvel_sd              =   1.5067571647320E-02
(PID.TID 0000.0001) %MON dynstat_vvel_del2            =   7.4765352937922E-05
(PID.TID 0000.0001) %MON dynstat_wvel_max             =   1.7825826538901E-08
(PID.TID 0000.0001) %MON dynstat_wvel_min             =  -1.3008873795043E-08
(PID.TID 0000.0001) %MON dynstat_wvel_mean            =  -9.6968304003692E-23
(PID.TID 0000.0001) %MON dynstat_wvel_sd              =   6.8126500635904E-09
(PID.TID 0000.0001) %MON dynstat_wvel_del2            =   2.8810483024513E-12
(PID.TID 0000.0001) %MON dynstat_theta_max            =   2.0000000000000E+01
(PID.TID 0000.0001) %MON dynstat_theta_min            =   2.0000000000000E+01
(PID.TID 0000.0001) %MON dynstat_theta_mean           =   2.0000000000000E+01
(PID.TID 0000.0001) %MON dynstat_theta_sd             =   0.0000000000000E+00
(PID.TID 0000.0001) %MON dynstat_theta_del2           =   0.0000000000000E+00
(PID.TID 0000.0001) %MON dynstat_salt_max             =   3.0000000000000E+01
(PID.TID 0000.0001) %MON dynstat_salt_min             =   3.0000000000000E+01
(PID.TID 0000.0001) %MON dynstat_salt_mean            =   3.0000000000000E+01
(PID.TID 0000.0001) %MON dynstat_salt_sd              =   0.0000000000000E+00
(PID.TID 0000.0001) %MON dynstat_salt_del2            =   0.0000000000000E+00
(PID.TID 0000.0001) %MON trAdv_CFL_u_max              =   1.8066111058604E-03
(PID.TID 0000.0001) %MON trAdv_CFL_v_max              =   4.9538267963334E-03
(PID.TID 0000.0001) %MON trAdv_CFL_w_max              =   4.2769355125842E-09
(PID.TID 0000.0001) %MON advcfl_uvel_max              =   1.8065584375976E-03
(PID.TID 0000.0001) %MON advcfl_vvel_max              =   4.9533605946770E-03
(PID.TID 0000.0001) %MON advcfl_wvel_max              =   8.5563967386726E-09
(PID.TID 0000.0001) %MON advcfl_W_hf_max              =   0.0000000000000E+00
(PID.TID 0000.0001) %MON pe_b_mean                    =   2.3148099818462E-07
(PID.TID 0000.0001) %MON ke_max                       =   3.4062245921171E-03
(PID.TID 0000.0001) %MON ke_mean                      =   1.2892287234330E-04
(PID.TID 0000.0001) %MON ke_vol                       =   7.2000000000000E+15
(PID.TID 0000.0001) %MON vort_r_min                   =  -1.5705449047310E-06
(PID.TID 0000.0001) %MON vort_r_max                   =   2.2289987524275E-06
(PID.TID 0000.0001) %MON vort_a_mean                  =   1.0600000000000E-04
(PID.TID 0000.0001) %MON vort_a_sd                    =   3.5370468216345E-06
(PID.TID 0000.0001) %MON vort_p_mean                  =   1.1130000000000E-04
(PID.TID 0000.0001) %MON vort_p_sd                    =   4.1150970215297E-05
(PID.TID 0000.0001) %MON surfExpan_theta_mean         =  -1.9396262374016E-21
(PID.TID 0000.0001) %MON surfExpan_salt_mean          =  -2.9094381225213E-21
(PID.TID 0000.0001) // =======================================================
(PID.TID 0000.0001) // End MONITOR dynamic field statistics
(PID.TID 0000.0001) // =======================================================
 cg2d: Sum(rhs),rhsMax =  -6.41628151170998E-04  1.37776142532715E-01
 cg2d: Sum(rhs),rhsMax =  -6.41048880083838E-04  1.37764261619267E-01
 cg2d: Sum(rhs),rhsMax =  -6.40469200978372E-04  1.37752382453164E-01
 cg2d: Sum(rhs),rhsMax =  -6.39889112553138E-04  1.37740505055742E-01
 cg2d: Sum(rhs),rhsMax =  -6.39308614895194E-04  1.37728629448512E-01
 cg2d: Sum(rhs),rhsMax =  -6.38727708788244E-04  1.37716755653042E-01
 cg2d: Sum(rhs),rhsMax =  -6.38146395222921E-04  1.37704883690886E-01
 cg2d: Sum(rhs),rhsMax =  -6.37564674533121E-04  1.37693013583561E-01
 cg2d: Sum(rhs),rhsMax =  -6.36982546897768E-04  1.37681145352553E-01
 cg2d: Sum(rhs),rhsMax =  -6.36400012298764E-04  1.37669279019330E-01
 cg2d: Sum(rhs),rhsMax =  -6.35817070605763E-04  1.37657414605348E-01
 cg2d: Sum(rhs),rhsMax =  -6.35233721494722E-04  1.37645552132065E-01
 cg2d: Sum(rhs),rhsMax =  -6.34649965262217E-04  1.37633691620935E-01
 cg2d: Sum(rhs),rhsMax =  -6.34065801744108E-04  1.37621833093414E-01
 cg2d: Sum(rhs),rhsMax =  -6.33481231118269E-04  1.37609976570951E-01
 cg2d: Sum(rhs),rhsMax =  -6.32896253267669E-04  1.37598122074992E-01
 cg2d: Sum(rhs),rhsMax =  -6.32310868251357E-04  1.37586269626972E-01
 cg2d: Sum(rhs),rhsMax =  -6.31725075930015E-04  1.37574419248318E-01
 cg2d: Sum(rhs),rhsMax =  -6.31138876404158E-04  1.37562570960451E-01
 cg2d: Sum(rhs),rhsMax =  -6.30552269412965E-04  1.37550724784782E-01
 cg2d: Sum(rhs),rhsMax =  -6.29965255004496E-04  1.37538880742719E-01
 cg2d: Sum(rhs),rhsMax =  -6.29377833169898E-04  1.37527038855661E-01
 cg2d: Sum(rhs),rhsMax =  -6.28790003715535E-04  1.37515199145003E-01
 cg2d: Sum(rhs),rhsMax =  -6.28201766661440E-04  1.37503361632131E-01
 cg2d: Sum(rhs),rhsMax =  -6.27613121907245E-04  1.37491526338426E-01
 cg2d: Sum(rhs),rhsMax =  -6.27024069398516E-04  1.37479693285259E-01
 cg2d: Sum(rhs),rhsMax =  -6.26434608986052E-04  1.37467862494000E-01
 cg2d: Sum(rhs),rhsMax =  -6.25844740638065E-04  1.37456033986005E-01
 cg2d: Sum(rhs),rhsMax =  -6.25254464285318E-04  1.37444207782629E-01
 cg2d: Sum(rhs),rhsMax =  -6.24663779933387E-04  1.37432383905215E-01
 cg2d: Sum(rhs),rhsMax =  -6.24072687358195E-04  1.37420562375101E-01
 cg2d: Sum(rhs),rhsMax =  -6.23481186562831E-04  1.37408743213618E-01
 cg2d: Sum(rhs),rhsMax =  -6.22889277439778E-04  1.37396926442089E-01
 cg2d: Sum(rhs),rhsMax =  -6.22296959966280E-04  1.37385112081830E-01
 cg2d: Sum(rhs),rhsMax =  -6.21704234221653E-04  1.37373300154149E-01
 cg2d: Sum(rhs),rhsMax =  -6.21111099915818E-04  1.37361490680348E-01
 cg2d: Sum(rhs),rhsMax =  -6.20517557212024E-04  1.37349683681721E-01
 cg2d: Sum(rhs),rhsMax =  -6.19923605964178E-04  1.37337879179552E-01
 cg2d: Sum(rhs),rhsMax =  -6.19329246160328E-04  1.37326077195122E-01
 cg2d: Sum(rhs),rhsMax =  -6.18734477835219E-04  1.37314277749701E-01
 cg2d: Sum(rhs),rhsMax =  -6.18139300959896E-04  1.37302480864553E-01
 cg2d: Sum(rhs),rhsMax =  -6.17543715478430E-04  1.37290686560932E-01
 cg2d: Sum(rhs),rhsMax =  -6.16947721496779E-04  1.37278894860087E-01
 cg2d: Sum(rhs),rhsMax =  -6.16351318989077E-04  1.37267105783258E-01
 cg2d: Sum(rhs),rhsMax =  -6.15754507975914E-04  1.37255319351676E-01
 cg2d: Sum(rhs),rhsMax =  -6.15157288538089E-04  1.37243535586566E-01
 cg2d: Sum(rhs),rhsMax =  -6.14559660679600E-04  1.37231754509145E-01
 cg2d: Sum(rhs),rhsMax =  -6.13961624543143E-04  1.37219976140619E-01
 cg2d: Sum(rhs),rhsMax =  -6.13363180215460E-04  1.37208200502190E-01
 cg2d: Sum(rhs),rhsMax =  -6.12764327697182E-04  1.37196427615050E-01
 cg2d: Sum(rhs),rhsMax =  -6.12165067164237E-04  1.37184657500381E-01
 cg2d: Sum(rhs),rhsMax =  -6.11565398736800E-04  1.37172890179361E-01
 cg2d: Sum(rhs),rhsMax =  -6.10965322624806E-04  1.37161125673155E-01
 cg2d: Sum(rhs),rhsMax =  -6.10364838932115E-04  1.37149364002923E-01
 cg2d: Sum(rhs),rhsMax =  -6.09763947796035E-04  1.37137605189816E-01
 cg2d: Sum(rhs),rhsMax =  -6.09162649467444E-04  1.37125849254976E-01
 cg2d: Sum(rhs),rhsMax =  -6.08560944013536E-04  1.37114096219536E-01
 cg2d: Sum(rhs),rhsMax =  -6.07958831818970E-04  1.37102346104623E-01
 cg2d: Sum(rhs),rhsMax =  -6.07356313076564E-04  1.37090598931351E-01
 cg2d: Sum(rhs),rhsMax =  -6.06753388012399E-04  1.37078854720831E-01
 cg2d: Sum(rhs),rhsMax =  -6.06150056908214E-04  1.37067113494160E-01
 cg2d: Sum(rhs),rhsMax =  -6.05546320119405E-04  1.37055375272430E-01
 cg2d: Sum(rhs),rhsMax =  -6.04942177902026E-04  1.37043640076722E-01
 cg2d: Sum(rhs),rhsMax =  -6.04337630551253E-04  1.37031907928109E-01
 cg2d: Sum(rhs),rhsMax =  -6.03732678515871E-04  1.37020178847657E-01
 cg2d: Sum(rhs),rhsMax =  -6.03127322120283E-04  1.37008452856419E-01
 cg2d: Sum(rhs),rhsMax =  -6.02521561676608E-04  1.36996729975442E-01
 cg2d: Sum(rhs),rhsMax =  -6.01915397686542E-04  1.36985010225765E-01
 cg2d: Sum(rhs),rhsMax =  -6.01308830538928E-04  1.36973293628414E-01
 cg2d: Sum(rhs),rhsMax =  -6.00701860660007E-04  1.36961580204408E-01
 cg2d: Sum(rhs),rhsMax =  -6.00094488589798E-04  1.36949869974760E-01
 cg2d: Sum(rhs),rhsMax =  -5.99486714720405E-04  1.36938162960468E-01
(PID.TID 0000.0001)      cg2d_init_res =   1.25100898033724E-03
(PID.TID 0000.0001)      cg2d_iters(min,last) =      -1      74
(PID.TID 0000.0001)      cg2d_last_res =   9.93100195015915E-08
(PID.TID 0000.0001) // =======================================================
(PID.TID 0000.0001) // Begin MONITOR dynamic field statistics
(PID.TID 0000.0001) // =======================================================
(PID.TID 0000.0001) %MON time_tsnumber                =                  7056
(PID.TID 0000.0001) %MON time_secondsf                =   8.4672000000000E+06
(PID.TID 0000.0001) %MON dynstat_eta_max              =   4.7584662645544E-02
(PID.TID 0000.0001) %MON dynstat_eta_min              =  -1.7990566982744E-02
(PID.TID 0000.0001) %MON dynstat_eta_mean             =   4.1001158958977E-07
(PID.TID 0000.0001) %MON dynstat_eta_sd               =   1.5114454059308E-02
(PID.TID 0000.0001) %MON dynstat_eta_del2             =   1.8410474987156E-05
(PID.TID 0000.0001) %MON dynstat_uvel_max             =   3.0045723988547E-02
(PID.TID 0000.0001) %MON dynstat_uvel_min             =  -1.5684581497129E-02
(PID.TID 0000.0001) %MON dynstat_uvel_mean            =   2.4816602581146E-07
(PID.TID 0000.0001) %MON dynstat_uvel_sd              =   5.9206040429731E-03
(PID.TID 0000.0001) %MON dynstat_uvel_del2            =   7.7387134238753E-06
(PID.TID 0000.0001) %MON dynstat_vvel_max             =   8.1998730795926E-02
(PID.TID 0000.0001) %MON dynstat_vvel_min             =  -3.6784032887406E-02
(PID.TID 0000.0001) %MON dynstat_vvel_mean            =  -3.4536767377599E-09
(PID.TID 0000.0001) %MON dynstat_vvel_sd              =   1.5000081054151E-02
(PID.TID 0000.0001) %MON dynstat_vvel_del2            =   7.4549342472541E-05
(PID.TID 0000.0001) %MON dynstat_wvel_max             =   1.8238055862166E-08
(PID.TID 0000.0001) %MON dynstat_wvel_min             =  -1.2145039740717E-08
(PID.TID 0000.0001) %MON dynstat_wvel_mean            =   1.0928922872861E-21
(PID.TID 0000.0001) %MON dynstat_wvel_sd              =   6.7909456469858E-09
(PID.TID 0000.0001) %MON dynstat_wvel_del2            =   2.8681532133580E-12
(PID.TID 0000.0001) %MON dynstat_theta_max            =   2.0000000000000E+01
(PID.TID 0000.0001) %MON dynstat_theta_min            =   2.0000000000000E+01
(PID.TID 0000.0001) %MON dynstat_theta_mean           =   2.0000000000000E+01
(PID.TID 0000.0001) %MON dynstat_theta_sd             =   0.0000000000000E+00
(PID.TID 0000.0001) %MON dynstat_theta_del2           =   0.0000000000000E+00
(PID.TID 0000.0001) %MON dynstat_salt_max             =   3.0000000000000E+01
(PID.TID 0000.0001) %MON dynstat_salt_min             =   3.0000000000000E+01
(PID.TID 0000.0001) %MON dynstat_salt_mean            =   3.0000000000000E+01
(PID.TID 0000.0001) %MON dynstat_salt_sd              =   0.0000000000000E+00
(PID.TID 0000.0001) %MON dynstat_salt_del2            =   0.0000000000000E+00
(PID.TID 0000.0001) %MON trAdv_CFL_u_max              =   1.8027965244353E-03
(PID.TID 0000.0001) %MON trAdv_CFL_v_max              =   4.9203858186690E-03
(PID.TID 0000.0001) %MON trAdv_CFL_w_max              =   4.3758181667654E-09
(PID.TID 0000.0001) %MON advcfl_uvel_max              =   1.8027434393128E-03
(PID.TID 0000.0001) %MON advcfl_vvel_max              =   4.9199238477555E-03
(PID.TID 0000.0001) %MON advcfl_wvel_max              =   8.7542668138398E-09
(PID.TID 0000.0001) %MON advcfl_W_hf_max              =   0.0000000000000E+00
(PID.TID 0000.0001) %MON pe_b_mean                    =   2.2410623396713E-07
(PID.TID 0000.0001) %MON ke_max                       =   3.3616949126289E-03
(PID.TID 0000.0001) %MON ke_mean                      =   1.2786085876379E-04
(PID.TID 0000.0001) %MON ke_vol                       =   7.2000000000000E+15
(PID.TID 0000.0001) %MON vort_r_min                   =  -1.5664690827027E-06
(PID.TID 0000.0001) %MON vort_r_max                   =   2.2141094671498E-06
(PID.TID 0000.0001) %MON vort_a_mean                  =   1.0600000000000E-04
(PID.TID 0000.0001) %MON vort_a_sd                    =   3.5369277754261E-06
(PID.TID 0000.0001) %MON vort_p_mean                  =   1.1130000000000E-04
(PID.TID 0000.0001) %MON vort_p_sd                    =   4.1151029923707E-05
(PID.TID 0000.0001) %MON surfExpan_theta_mean         =   2.1855662958438E-20
(PID.TID 0000.0001) %MON surfExpan_salt_mean          =   3.2785073421514E-20
(PID.TID 0000.0001) // =======================================================
(PID.TID 0000.0001) // End MONITOR dynamic field statistics
(PID.TID 0000.0001) // =======================================================
 cg2d: Sum(rhs),rhsMax =  -5.98878539654991E-04  1.36926459182524E-01
 cg2d: Sum(rhs),rhsMax =  -5.98269963817675E-04  1.36914758661911E-01
 cg2d: Sum(rhs),rhsMax =  -5.97660987801245E-04  1.36903061419601E-01
 cg2d: Sum(rhs),rhsMax =  -5.97051612216765E-04  1.36891367476558E-01
 cg2d: Sum(rhs),rhsMax =  -5.96516739154825E-04  1.36879676862802E-01
 cg2d: Sum(rhs),rhsMax =  -5.95981631152378E-04  1.36867989591833E-01
 cg2d: Sum(rhs),rhsMax =  -5.95446248063423E-04  1.36856305671176E-01
 cg2d: Sum(rhs),rhsMax =  -5.94910595312788E-04  1.36844625133091E-01
 cg2d: Sum(rhs),rhsMax =  -5.94374668253809E-04  1.36832947998676E-01
 cg2d: Sum(rhs),rhsMax =  -5.93838467079444E-04  1.36821274289181E-01
 cg2d: Sum(rhs),rhsMax =  -5.93301994831855E-04  1.36809604025385E-01
 cg2d: Sum(rhs),rhsMax =  -5.92765254930567E-04  1.36797937228109E-01
 cg2d: Sum(rhs),rhsMax =  -5.92228249877614E-04  1.36786273918269E-01
 cg2d: Sum(rhs),rhsMax =  -5.91690981143090E-04  1.36774614116808E-01
 cg2d: Sum(rhs),rhsMax =  -5.91153449446303E-04  1.36762957844628E-01
 cg2d: Sum(rhs),rhsMax =  -5.90615655423033E-04  1.36751305122569E-01
 cg2d: Sum(rhs),rhsMax =  -5.90077599930937E-04  1.36739655971440E-01
 cg2d: Sum(rhs),rhsMax =  -5.89539284129645E-04  1.36728010412040E-01
 cg2d: Sum(rhs),rhsMax =  -5.89000709429402E-04  1.36716368465175E-01
 cg2d: Sum(rhs),rhsMax =  -5.88461877189074E-04  1.36704730151652E-01
 cg2d: Sum(rhs),rhsMax =  -5.87922788813705E-04  1.36693095492270E-01
 cg2d: Sum(rhs),rhsMax =  -5.87383445710383E-04  1.36681464507818E-01
 cg2d: Sum(rhs),rhsMax =  -5.86843849067885E-04  1.36669837219074E-01
 cg2d: Sum(rhs),rhsMax =  -5.86304000367595E-04  1.36658213646804E-01
 cg2d: Sum(rhs),rhsMax =  -5.85763900865820E-04  1.36646593811765E-01
 cg2d: Sum(rhs),rhsMax =  -5.85223551903939E-04  1.36634977734699E-01
 cg2d: Sum(rhs),rhsMax =  -5.84682954987234E-04  1.36623365436344E-01
 cg2d: Sum(rhs),rhsMax =  -5.84142111464715E-04  1.36611756937421E-01
 cg2d: Sum(rhs),rhsMax =  -5.83601022823750E-04  1.36600152258644E-01
 cg2d: Sum(rhs),rhsMax =  -5.83059690580257E-04  1.36588551420712E-01
 cg2d: Sum(rhs),rhsMax =  -5.82518116080386E-04  1.36576954444316E-01
 cg2d: Sum(rhs),rhsMax =  -5.81976300951711E-04  1.36565361350137E-01
 cg2d: Sum(rhs),rhsMax =  -5.81434246639165E-04  1.36553772158842E-01
 cg2d: Sum(rhs),rhsMax =  -5.80891954634954E-04  1.36542186891091E-01
 cg2d: Sum(rhs),rhsMax =  -5.80349426503052E-04  1.36530605567532E-01
 cg2d: Sum(rhs),rhsMax =  -5.79806663932070E-04  1.36519028208802E-01
 cg2d: Sum(rhs),rhsMax =  -5.79263668391865E-04  1.36507454835527E-01
 cg2d: Sum(rhs),rhsMax =  -5.78720441446891E-04  1.36495885468322E-01
 cg2d: Sum(rhs),rhsMax =  -5.78176984858346E-04  1.36484320127791E-01
 cg2d: Sum(rhs),rhsMax =  -5.77633300141717E-04  1.36472758834526E-01
 cg2d: Sum(rhs),rhsMax =  -5.77089388953713E-04  1.36461201609107E-01
 cg2d: Sum(rhs),rhsMax =  -5.76545252989192E-04  1.36449648472106E-01
 cg2d: Sum(rhs),rhsMax =  -5.76000893899321E-04  1.36438099444080E-01
 cg2d: Sum(rhs),rhsMax =  -5.75456313490568E-04  1.36426554545577E-01
 cg2d: Sum(rhs),rhsMax =  -5.74911513313230E-04  1.36415013797133E-01
 cg2d: Sum(rhs),rhsMax =  -5.74366495297076E-04  1.36403477219273E-01
 cg2d: Sum(rhs),rhsMax =  -5.73821261025185E-04  1.36391944832509E-01
 cg2d: Sum(rhs),rhsMax =  -5.73275812289100E-04  1.36380416657343E-01
 cg2d: Sum(rhs),rhsMax =  -5.72730150977422E-04  1.36368892714265E-01
 cg2d: Sum(rhs),rhsMax =  -5.72184278776264E-04  1.36357373023753E-01
 cg2d: Sum(rhs),rhsMax =  -5.71638197599950E-04  1.36345857606275E-01
 cg2d: Sum(rhs),rhsMax =  -5.71091909162024E-04  1.36334346482284E-01
 cg2d: Sum(rhs),rhsMax =  -5.70545415371396E-04  1.36322839672224E-01
 cg2d: Sum(rhs),rhsMax =  -5.69998718093798E-04  1.36311337196526E-01
 cg2d: Sum(rhs),rhsMax =  -5.69451819211532E-04  1.36299839075610E-01
 cg2d: Sum(rhs),rhsMax =  -5.68904720638203E-04  1.36288345329883E-01
 cg2d: Sum(rhs),rhsMax =  -5.68357424158858E-04  1.36276855979739E-01
 cg2d: Sum(rhs),rhsMax =  -5.67809931776578E-04  1.36265371045565E-01
 cg2d: Sum(rhs),rhsMax =  -5.67262245516829E-04  1.36253890547730E-01
 cg2d: Sum(rhs),rhsMax =  -5.66714367119019E-04  1.36242414506594E-01
 cg2d: Sum(rhs),rhsMax =  -5.66166298708602E-04  1.36230942942504E-01
 cg2d: Sum(rhs),rhsMax =  -5.65618042196509E-04  1.36219475875795E-01
 cg2d: Sum(rhs),rhsMax =  -5.65069599517313E-04  1.36208013326790E-01
 cg2d: Sum(rhs),rhsMax =  -5.64520972865619E-04  1.36196555315799E-01
 cg2d: Sum(rhs),rhsMax =  -5.63972164122795E-04  1.36185101863121E-01
 cg2d: Sum(rhs),rhsMax =  -5.63423175344896E-04  1.36173652989041E-01
 cg2d: Sum(rhs),rhsMax =  -5.62874008617984E-04  1.36162208713833E-01
 cg2d: Sum(rhs),rhsMax =  -5.62324665907001E-04  1.36150769057756E-01
 cg2d: Sum(rhs),rhsMax =  -5.61775149397655E-04  1.36139334041060E-01
 cg2d: Sum(rhs),rhsMax =  -5.61225461081513E-04  1.36127903683980E-01
 cg2d: Sum(rhs),rhsMax =  -5.60675603107166E-04  1.36116478006739E-01
 cg2d: Sum(rhs),rhsMax =  -5.60125577594218E-04  1.36105057029548E-01
(PID.TID 0000.0001)      cg2d_init_res =   1.25106425372723E-03
(PID.TID 0000.0001)      cg2d_iters(min,last) =      -1      75
(PID.TID 0000.0001)      cg2d_last_res =   9.40700771555418E-08
(PID.TID 0000.0001) // =======================================================
(PID.TID 0000.0001) // Begin MONITOR dynamic field statistics
(PID.TID 0000.0001) // =======================================================
(PID.TID 0000.0001) %MON time_tsnumber                =                  7128
(PID.TID 0000.0001) %MON time_secondsf                =   8.5536000000000E+06
(PID.TID 0000.0001) %MON dynstat_eta_max              =   4.6853143746232E-02
(PID.TID 0000.0001) %MON dynstat_eta_min              =  -1.8210834156927E-02
(PID.TID 0000.0001) %MON dynstat_eta_mean             =   3.8077325825275E-07
(PID.TID 0000.0001) %MON dynstat_eta_sd               =   1.4897661819819E-02
(PID.TID 0000.0001) %MON dynstat_eta_del2             =   1.8365800033972E-05
(PID.TID 0000.0001) %MON dynstat_uvel_max             =   2.9982417191877E-02
(PID.TID 0000.0001) %MON dynstat_uvel_min             =  -1.5659653616075E-02
(PID.TID 0000.0001) %MON dynstat_uvel_mean            =   2.3421814362318E-07
(PID.TID 0000.0001) %MON dynstat_uvel_sd              =   5.9217335789540E-03
(PID.TID 0000.0001) %MON dynstat_uvel_del2            =   7.7295768979236E-06
(PID.TID 0000.0001) %MON dynstat_vvel_max             =   8.1472849574337E-02
(PID.TID 0000.0001) %MON dynstat_vvel_min             =  -3.6786105990459E-02
(PID.TID 0000.0001) %MON dynstat_vvel_mean            =  -4.4766964709078E-09
(PID.TID 0000.0001) %MON dynstat_vvel_sd              =   1.4934731567390E-02
(PID.TID 0000.0001) %MON dynstat_vvel_del2            =   7.4328448188638E-05
(PID.TID 0000.0001) %MON dynstat_wvel_max             =   1.8566727901925E-08
(PID.TID 0000.0001) %MON dynstat_wvel_min             =  -1.1322155797970E-08
(PID.TID 0000.0001) %MON dynstat_wvel_mean            =   6.6827144312103E-22
(PID.TID 0000.0001) %MON dynstat_wvel_sd              =   6.7676401196149E-09
(PID.TID 0000.0001) %MON dynstat_wvel_del2            =   2.8527519664426E-12
(PID.TID 0000.0001) %MON dynstat_theta_max            =   2.0000000000000E+01
(PID.TID 0000.0001) %MON dynstat_theta_min            =   2.0000000000000E+01
(PID.TID 0000.0001) %MON dynstat_theta_mean           =   2.0000000000000E+01
(PID.TID 0000.0001) %MON dynstat_theta_sd             =   0.0000000000000E+00
(PID.TID 0000.0001) %MON dynstat_theta_del2           =   0.0000000000000E+00
(PID.TID 0000.0001) %MON dynstat_salt_max             =   3.0000000000000E+01
(PID.TID 0000.0001) %MON dynstat_salt_min             =   3.0000000000000E+01
(PID.TID 0000.0001) %MON dynstat_salt_mean            =   3.0000000000000E+01
(PID.TID 0000.0001) %MON dynstat_salt_sd              =   0.0000000000000E+00
(PID.TID 0000.0001) %MON dynstat_salt_del2            =   0.0000000000000E+00
(PID.TID 0000.0001) %MON trAdv_CFL_u_max              =   1.7989972578862E-03
(PID.TID 0000.0001) %MON trAdv_CFL_v_max              =   4.8888010977817E-03
(PID.TID 0000.0001) %MON trAdv_CFL_w_max              =   4.4546325501055E-09
(PID.TID 0000.0001) %MON advcfl_uvel_max              =   1.7989450315126E-03
(PID.TID 0000.0001) %MON advcfl_vvel_max              =   4.8883709744602E-03
(PID.TID 0000.0001) %MON advcfl_wvel_max              =   8.9120293929242E-09
(PID.TID 0000.0001) %MON advcfl_W_hf_max              =   0.0000000000000E+00
(PID.TID 0000.0001) %MON pe_b_mean                    =   2.1772346161368E-07
(PID.TID 0000.0001) %MON ke_max                       =   3.3179677385799E-03
(PID.TID 0000.0001) %MON ke_mean                      =   1.2690562501562E-04
(PID.TID 0000.0001) %MON ke_vol                       =   7.2000000000000E+15
(PID.TID 0000.0001) %MON vort_r_min                   =  -1.5618702888251E-06
(PID.TID 0000.0001) %MON vort_r_max                   =   2.1996847129905E-06
(PID.TID 0000.0001) %MON vort_a_mean                  =   1.0600000000000E-04
(PID.TID 0000.0001) %MON vort_a_sd                    =   3.5368107167997E-06
(PID.TID 0000.0001) %MON vort_p_mean                  =   1.1130000000000E-04
(PID.TID 0000.0001) %MON vort_p_sd                    =   4.1151101395322E-05
(PID.TID 0000.0001) %MON surfExpan_theta_mean         =   1.3365466758033E-20
(PID.TID 0000.0001) %MON surfExpan_salt_mean          =   2.0046463254807E-20
(PID.TID 0000.0001) // =======================================================
(PID.TID 0000.0001) // End MONITOR dynamic field statistics
(PID.TID 0000.0001) // =======================================================
 cg2d: Sum(rhs),rhsMax =  -5.59575386596991E-04  1.36093640772603E-01
 cg2d: Sum(rhs),rhsMax =  -5.59025032409590E-04  1.36082229256091E-01
 cg2d: Sum(rhs),rhsMax =  -5.58474516923764E-04  1.36070822500183E-01
 cg2d: Sum(rhs),rhsMax =  -5.57923842525495E-04  1.36059420525038E-01
 cg2d: Sum(rhs),rhsMax =  -5.57373011311500E-04  1.36048023350803E-01
 cg2d: Sum(rhs),rhsMax =  -5.56822025449384E-04  1.36036630997611E-01
 cg2d: Sum(rhs),rhsMax =  -5.56270887076984E-04  1.36025243485582E-01
 cg2d: Sum(rhs),rhsMax =  -5.55719598482246E-04  1.36013860834823E-01
 cg2d: Sum(rhs),rhsMax =  -5.55168161929980E-04  1.36002483065429E-01
 cg2d: Sum(rhs),rhsMax =  -5.54616579510369E-04  1.35991110197482E-01
 cg2d: Sum(rhs),rhsMax =  -5.54064853512096E-04  1.35979742251047E-01
 cg2d: Sum(rhs),rhsMax =  -5.53512986163916E-04  1.35968379246181E-01
 cg2d: Sum(rhs),rhsMax =  -5.52960979769986E-04  1.35957021202924E-01
 cg2d: Sum(rhs),rhsMax =  -5.52408836622133E-04  1.35945668141305E-01
 cg2d: Sum(rhs),rhsMax =  -5.51856558917862E-04  1.35934320081338E-01
 cg2d: Sum(rhs),rhsMax =  -5.51304148973393E-04  1.35922977043025E-01
 cg2d: Sum(rhs),rhsMax =  -5.50751608995615E-04  1.35911639046352E-01
 cg2d: Sum(rhs),rhsMax =  -5.50198941417970E-04  1.35900306111295E-01
 cg2d: Sum(rhs),rhsMax =  -5.49646148480803E-04  1.35888978257813E-01
 cg2d: Sum(rhs),rhsMax =  -5.49093232540422E-04  1.35877655505855E-01
 cg2d: Sum(rhs),rhsMax =  -5.48540195885257E-04  1.35866337875353E-01
 cg2d: Sum(rhs),rhsMax =  -5.47987040852670E-04  1.35855025386228E-01
 cg2d: Sum(rhs),rhsMax =  -5.47433769780096E-04  1.35843718058383E-01
 cg2d: Sum(rhs),rhsMax =  -5.46880385049484E-04  1.35832415911714E-01
 cg2d: Sum(rhs),rhsMax =  -5.46326888994773E-04  1.35821118966097E-01
 cg2d: Sum(rhs),rhsMax =  -5.45773283989933E-04  1.35809827241396E-01
 cg2d: Sum(rhs),rhsMax =  -5.45219572419928E-04  1.35798540757463E-01
 cg2d: Sum(rhs),rhsMax =  -5.44665756667314E-04  1.35787259534133E-01
 cg2d: Sum(rhs),rhsMax =  -5.44111839082530E-04  1.35775983591230E-01
 cg2d: Sum(rhs),rhsMax =  -5.43557822113264E-04  1.35764712948562E-01
 cg2d: Sum(rhs),rhsMax =  -5.43003708137103E-04  1.35753447625922E-01
 cg2d: Sum(rhs),rhsMax =  -5.42449499463010E-04  1.35742187643092E-01
 cg2d: Sum(rhs),rhsMax =  -5.41895198629037E-04  1.35730933019837E-01
 cg2d: Sum(rhs),rhsMax =  -5.41340807998214E-04  1.35719683775907E-01
 cg2d: Sum(rhs),rhsMax =  -5.40864752981333E-04  1.35708439801381E-01
 cg2d: Sum(rhs),rhsMax =  -5.40388751076257E-04  1.35697201370483E-01
 cg2d: Sum(rhs),rhsMax =  -5.39912841671141E-04  1.35685968381807E-01
 cg2d: Sum(rhs),rhsMax =  -5.39436979965780E-04  1.35674740852538E-01
 cg2d: Sum(rhs),rhsMax =  -5.38961153372403E-04  1.35663518799972E-01
 cg2d: Sum(rhs),rhsMax =  -5.38485363488346E-04  1.35652302244136E-01
 cg2d: Sum(rhs),rhsMax =  -5.38009618462482E-04  1.35641091205032E-01
 cg2d: Sum(rhs),rhsMax =  -5.37533926842041E-04  1.35629885702526E-01
 cg2d: Sum(rhs),rhsMax =  -5.37058294058803E-04  1.35618685756457E-01
 cg2d: Sum(rhs),rhsMax =  -5.36656596677147E-04  1.35607491591245E-01
 cg2d: Sum(rhs),rhsMax =  -5.36255143349303E-04  1.35596302817445E-01
 cg2d: Sum(rhs),rhsMax =  -5.35853842481176E-04  1.35585119656186E-01
 cg2d: Sum(rhs),rhsMax =  -5.35452684728603E-04  1.35573942132693E-01
 cg2d: Sum(rhs),rhsMax =  -5.35051654754287E-04  1.35562770261875E-01
 cg2d: Sum(rhs),rhsMax =  -5.34650753538788E-04  1.35551604063808E-01
 cg2d: Sum(rhs),rhsMax =  -5.34249989759064E-04  1.35540443558414E-01
 cg2d: Sum(rhs),rhsMax =  -5.33849372394061E-04  1.35529288765595E-01
 cg2d: Sum(rhs),rhsMax =  -5.33448906841028E-04  1.35518139705151E-01
 cg2d: Sum(rhs),rhsMax =  -5.33048594448810E-04  1.35506996396745E-01
 cg2d: Sum(rhs),rhsMax =  -5.32648434506735E-04  1.35495858859853E-01
 cg2d: Sum(rhs),rhsMax =  -5.32248426064452E-04  1.35484727113826E-01
 cg2d: Sum(rhs),rhsMax =  -5.31848569087013E-04  1.35473601177982E-01
 cg2d: Sum(rhs),rhsMax =  -5.31448864362187E-04  1.35462481071669E-01
 cg2d: Sum(rhs),rhsMax =  -5.31049313461315E-04  1.35451366814271E-01
 cg2d: Sum(rhs),rhsMax =  -5.30649917930026E-04  1.35440258425190E-01
 cg2d: Sum(rhs),rhsMax =  -5.30250678999135E-04  1.35429155923810E-01
 cg2d: Sum(rhs),rhsMax =  -5.29851597867744E-04  1.35418059329492E-01
 cg2d: Sum(rhs),rhsMax =  -5.29452675405019E-04  1.35406968661573E-01
 cg2d: Sum(rhs),rhsMax =  -5.29053912418942E-04  1.35395883939365E-01
 cg2d: Sum(rhs),rhsMax =  -5.28655309890041E-04  1.35384805182170E-01
 cg2d: Sum(rhs),rhsMax =  -5.28256868750680E-04  1.35373732409276E-01
 cg2d: Sum(rhs),rhsMax =  -5.27858590098402E-04  1.35362665639958E-01
 cg2d: Sum(rhs),rhsMax =  -5.27460474751371E-04  1.35351604893473E-01
 cg2d: Sum(rhs),rhsMax =  -5.27062523842458E-04  1.35340550189061E-01
 cg2d: Sum(rhs),rhsMax =  -5.26664738233178E-04  1.35329501545946E-01
 cg2d: Sum(rhs),rhsMax =  -5.26267118949249E-04  1.35318458983336E-01
 cg2d: Sum(rhs),rhsMax =  -5.25869666794268E-04  1.35307422520421E-01
 cg2d: Sum(rhs),rhsMax =  -5.25472382826658E-04  1.35296392176375E-01
(PID.TID 0000.0001)      cg2d_init_res =   1.25129426704596E-03
(PID.TID 0000.0001)      cg2d_iters(min,last) =      -1      77
(PID.TID 0000.0001)      cg2d_last_res =   9.85316113534687E-08
(PID.TID 0000.0001) // =======================================================
(PID.TID 0000.0001) // Begin MONITOR dynamic field statistics
(PID.TID 0000.0001) // =======================================================
(PID.TID 0000.0001) %MON time_tsnumber                =                  7200
(PID.TID 0000.0001) %MON time_secondsf                =   8.6400000000000E+06
(PID.TID 0000.0001) %MON dynstat_eta_max              =   4.6096193109025E-02
(PID.TID 0000.0001) %MON dynstat_eta_min              =  -1.8471844790572E-02
(PID.TID 0000.0001) %MON dynstat_eta_mean             =   3.5517500409346E-07
(PID.TID 0000.0001) %MON dynstat_eta_sd               =   1.4715125848993E-02
(PID.TID 0000.0001) %MON dynstat_eta_del2             =   1.8319737594137E-05
(PID.TID 0000.0001) %MON dynstat_uvel_max             =   2.9920909696452E-02
(PID.TID 0000.0001) %MON dynstat_uvel_min             =  -1.5636742994758E-02
(PID.TID 0000.0001) %MON dynstat_uvel_mean            =   2.1711551080546E-07
(PID.TID 0000.0001) %MON dynstat_uvel_sd              =   5.9353886896537E-03
(PID.TID 0000.0001) %MON dynstat_uvel_del2            =   7.7269140852046E-06
(PID.TID 0000.0001) %MON dynstat_vvel_max             =   8.0962319919563E-02
(PID.TID 0000.0001) %MON dynstat_vvel_min             =  -3.6765881990999E-02
(PID.TID 0000.0001) %MON dynstat_vvel_mean            =  -5.4579257868470E-09
(PID.TID 0000.0001) %MON dynstat_vvel_sd              =   1.4872195400107E-02
(PID.TID 0000.0001) %MON dynstat_vvel_del2            =   7.4105449991728E-05
(PID.TID 0000.0001) %MON dynstat_wvel_max             =   1.8862947386660E-08
(PID.TID 0000.0001) %MON dynstat_wvel_min             =  -1.0505874346127E-08
(PID.TID 0000.0001) %MON dynstat_wvel_mean            =  -6.6354724973886E-22
(PID.TID 0000.0001) %MON dynstat_wvel_sd              =   6.7432426976323E-09
(PID.TID 0000.0001) %MON dynstat_wvel_del2            =   2.8368612178892E-12
(PID.TID 0000.0001) %MON dynstat_theta_max            =   2.0000000000000E+01
(PID.TID 0000.0001) %MON dynstat_theta_min            =   2.0000000000000E+01
(PID.TID 0000.0001) %MON dynstat_theta_mean           =   2.0000000000000E+01
(PID.TID 0000.0001) %MON dynstat_theta_sd             =   0.0000000000000E+00
(PID.TID 0000.0001) %MON dynstat_theta_del2           =   0.0000000000000E+00
(PID.TID 0000.0001) %MON dynstat_salt_max             =   3.0000000000000E+01
(PID.TID 0000.0001) %MON dynstat_salt_min             =   3.0000000000000E+01
(PID.TID 0000.0001) %MON dynstat_salt_mean            =   3.0000000000000E+01
(PID.TID 0000.0001) %MON dynstat_salt_sd              =   0.0000000000000E+00
(PID.TID 0000.0001) %MON dynstat_salt_del2            =   0.0000000000000E+00
(PID.TID 0000.0001) %MON trAdv_CFL_u_max              =   1.7953046896728E-03
(PID.TID 0000.0001) %MON trAdv_CFL_v_max              =   4.8581594587457E-03
(PID.TID 0000.0001) %MON trAdv_CFL_w_max              =   4.5264339266927E-09
(PID.TID 0000.0001) %MON advcfl_uvel_max              =   1.7952545817871E-03
(PID.TID 0000.0001) %MON advcfl_vvel_max              =   4.8577391951738E-03
(PID.TID 0000.0001) %MON advcfl_wvel_max              =   9.0542147455970E-09
(PID.TID 0000.0001) %MON advcfl_W_hf_max              =   0.0000000000000E+00
(PID.TID 0000.0001) %MON pe_b_mean                    =   2.1242076522916E-07
(PID.TID 0000.0001) %MON ke_max                       =   3.2754179659537E-03
(PID.TID 0000.0001) %MON ke_mean                      =   1.2606875885700E-04
(PID.TID 0000.0001) %MON ke_vol                       =   7.2000000000000E+15
(PID.TID 0000.0001) %MON vort_r_min                   =  -1.5567832565035E-06
(PID.TID 0000.0001) %MON vort_r_max                   =   2.1858585482073E-06
(PID.TID 0000.0001) %MON vort_a_mean                  =   1.0600000000000E-04
(PID.TID 0000.0001) %MON vort_a_sd                    =   3.5366969722497E-06
(PID.TID 0000.0001) %MON vort_p_mean                  =   1.1130000000000E-04
(PID.TID 0000.0001) %MON vort_p_sd                    =   4.1151183714739E-05
(PID.TID 0000.0001) %MON surfExpan_theta_mean         =  -1.3256043176726E-20
(PID.TID 0000.0001) %MON surfExpan_salt_mean          =  -1.9886827986839E-20
(PID.TID 0000.0001) // =======================================================
(PID.TID 0000.0001) // End MONITOR dynamic field statistics
(PID.TID 0000.0001) // =======================================================
 cg2d: Sum(rhs),rhsMax =  -5.25075267856755E-04  1.35285367970360E-01
 cg2d: Sum(rhs),rhsMax =  -5.24678322749949E-04  1.35274349921522E-01
 cg2d: Sum(rhs),rhsMax =  -5.24281548486408E-04  1.35263338048986E-01
 cg2d: Sum(rhs),rhsMax =  -5.23884945992095E-04  1.35252332371870E-01
 cg2d: Sum(rhs),rhsMax =  -5.23488515995717E-04  1.35241332909267E-01
 cg2d: Sum(rhs),rhsMax =  -5.23092259652609E-04  1.35230339680256E-01
 cg2d: Sum(rhs),rhsMax =  -5.22696177485195E-04  1.35219352703903E-01
 cg2d: Sum(rhs),rhsMax =  -5.22300270473801E-04  1.35208371999255E-01
 cg2d: Sum(rhs),rhsMax =  -5.21904539513764E-04  1.35197397585340E-01
 cg2d: Sum(rhs),rhsMax =  -5.21508985391396E-04  1.35186429481173E-01
 cg2d: Sum(rhs),rhsMax =  -5.21113608915188E-04  1.35175467705753E-01
 cg2d: Sum(rhs),rhsMax =  -5.20718410913429E-04  1.35164512278060E-01
 cg2d: Sum(rhs),rhsMax =  -5.20323392295376E-04  1.35153563217060E-01
 cg2d: Sum(rhs),rhsMax =  -5.20007943860084E-04  1.35142620313870E-01
 cg2d: Sum(rhs),rhsMax =  -5.19692735547000E-04  1.35131684044192E-01
 cg2d: Sum(rhs),rhsMax =  -5.19377777036997E-04  1.35120754197911E-01
 cg2d: Sum(rhs),rhsMax =  -5.19063020204171E-04  1.35109830796497E-01
 cg2d: Sum(rhs),rhsMax =  -5.18748446929918E-04  1.35098913854691E-01
 cg2d: Sum(rhs),rhsMax =  -5.18434056844771E-04  1.35088003391363E-01
 cg2d: Sum(rhs),rhsMax =  -5.18119858243952E-04  1.35077099426031E-01
 cg2d: Sum(rhs),rhsMax =  -5.17805859702042E-04  1.35066201978116E-01
 cg2d: Sum(rhs),rhsMax =  -5.17492065946076E-04  1.35055311066883E-01
 cg2d: Sum(rhs),rhsMax =  -5.17178477222811E-04  1.35044426711368E-01
 cg2d: Sum(rhs),rhsMax =  -5.16865091451125E-04  1.35033548930362E-01
 cg2d: Sum(rhs),rhsMax =  -5.16551906500125E-04  1.35022677742493E-01
 cg2d: Sum(rhs),rhsMax =  -5.16238920967712E-04  1.35011813166361E-01
 cg2d: Sum(rhs),rhsMax =  -5.15926134445570E-04  1.35000955220609E-01
 cg2d: Sum(rhs),rhsMax =  -5.15613547605277E-04  1.34990103923937E-01
 cg2d: Sum(rhs),rhsMax =  -5.15301160791094E-04  1.34979259295071E-01
 cg2d: Sum(rhs),rhsMax =  -5.14988974191302E-04  1.34968421352713E-01
 cg2d: Sum(rhs),rhsMax =  -5.14676987905526E-04  1.34957590115542E-01
 cg2d: Sum(rhs),rhsMax =  -5.14365201546546E-04  1.34946765602200E-01
 cg2d: Sum(rhs),rhsMax =  -5.14053615065804E-04  1.34935947831309E-01
 cg2d: Sum(rhs),rhsMax =  -5.13742228039759E-04  1.34925136821469E-01
 cg2d: Sum(rhs),rhsMax =  -5.13431040394412E-04  1.34914332591270E-01
 cg2d: Sum(rhs),rhsMax =  -5.13120052030523E-04  1.34903535159288E-01
 cg2d: Sum(rhs),rhsMax =  -5.12809262902957E-04  1.34892744544077E-01
 cg2d: Sum(rhs),rhsMax =  -5.12498672803684E-04  1.34881960764177E-01
 cg2d: Sum(rhs),rhsMax =  -5.12188281543689E-04  1.34871183838106E-01
 cg2d: Sum(rhs),rhsMax =  -5.11878089007595E-04  1.34860413784362E-01
 cg2d: Sum(rhs),rhsMax =  -5.11568095086972E-04  1.34849650621429E-01
 cg2d: Sum(rhs),rhsMax =  -5.11258299561150E-04  1.34838894367771E-01
 cg2d: Sum(rhs),rhsMax =  -5.10948702268303E-04  1.34828145041835E-01
 cg2d: Sum(rhs),rhsMax =  -5.10639302911923E-04  1.34817402662052E-01
 cg2d: Sum(rhs),rhsMax =  -5.10330101450646E-04  1.34806667246838E-01
 cg2d: Sum(rhs),rhsMax =  -5.10021097612910E-04  1.34795938814584E-01
 cg2d: Sum(rhs),rhsMax =  -5.09712291252219E-04  1.34785217383669E-01
 cg2d: Sum(rhs),rhsMax =  -5.09403682101164E-04  1.34774502972451E-01
 cg2d: Sum(rhs),rhsMax =  -5.09095269948356E-04  1.34763795599269E-01
 cg2d: Sum(rhs),rhsMax =  -5.08787054648525E-04  1.34753095282446E-01
 cg2d: Sum(rhs),rhsMax =  -5.08479035862370E-04  1.34742402040284E-01
 cg2d: Sum(rhs),rhsMax =  -5.08171213481286E-04  1.34731715891069E-01
 cg2d: Sum(rhs),rhsMax =  -5.07863587162749E-04  1.34721036853069E-01
 cg2d: Sum(rhs),rhsMax =  -5.07556156698719E-04  1.34710364944531E-01
 cg2d: Sum(rhs),rhsMax =  -5.07248921849905E-04  1.34699700183688E-01
 cg2d: Sum(rhs),rhsMax =  -5.06941882395249E-04  1.34689042588750E-01
 cg2d: Sum(rhs),rhsMax =  -5.06635038090566E-04  1.34678392177914E-01
 cg2d: Sum(rhs),rhsMax =  -5.06328388606074E-04  1.34667748969351E-01
 cg2d: Sum(rhs),rhsMax =  -5.06021933727032E-04  1.34657112981222E-01
 cg2d: Sum(rhs),rhsMax =  -5.05715673137517E-04  1.34646484231663E-01
 cg2d: Sum(rhs),rhsMax =  -5.05409606632176E-04  1.34635862738794E-01
 cg2d: Sum(rhs),rhsMax =  -5.05103733793815E-04  1.34625248520716E-01
 cg2d: Sum(rhs),rhsMax =  -5.04798054520823E-04  1.34614641595510E-01
 cg2d: Sum(rhs),rhsMax =  -5.04492568355780E-04  1.34604041981242E-01
 cg2d: Sum(rhs),rhsMax =  -5.04187275130408E-04  1.34593449695955E-01
 cg2d: Sum(rhs),rhsMax =  -5.03882174398477E-04  1.34582864757675E-01
 cg2d: Sum(rhs),rhsMax =  -5.03577265908649E-04  1.34572287184410E-01
 cg2d: Sum(rhs),rhsMax =  -5.03272549485190E-04  1.34561716994149E-01
 cg2d: Sum(rhs),rhsMax =  -5.02968024611739E-04  1.34551154204858E-01
 cg2d: Sum(rhs),rhsMax =  -5.02663691086982E-04  1.34540598834491E-01
 cg2d: Sum(rhs),rhsMax =  -5.02359548613095E-04  1.34530050900977E-01
 cg2d: Sum(rhs),rhsMax =  -5.02055596775607E-04  1.34519510422229E-01
(PID.TID 0000.0001)      cg2d_init_res =   1.25178883000177E-03
(PID.TID 0000.0001)      cg2d_iters(min,last) =      -1      78
(PID.TID 0000.0001)      cg2d_last_res =   9.48354887614609E-08
(PID.TID 0000.0001) // =======================================================
(PID.TID 0000.0001) // Begin MONITOR dynamic field statistics
(PID.TID 0000.0001) // =======================================================
(PID.TID 0000.0001) %MON time_tsnumber                =                  7272
(PID.TID 0000.0001) %MON time_secondsf                =   8.7264000000000E+06
(PID.TID 0000.0001) %MON dynstat_eta_max              =   4.5321133760006E-02
(PID.TID 0000.0001) %MON dynstat_eta_min              =  -1.8770634976543E-02
(PID.TID 0000.0001) %MON dynstat_eta_mean             =   3.3745063142458E-07
(PID.TID 0000.0001) %MON dynstat_eta_sd               =   1.4570706023060E-02
(PID.TID 0000.0001) %MON dynstat_eta_del2             =   1.8272647432731E-05
(PID.TID 0000.0001) %MON dynstat_uvel_max             =   2.9862694981389E-02
(PID.TID 0000.0001) %MON dynstat_uvel_min             =  -1.5617079169350E-02
(PID.TID 0000.0001) %MON dynstat_uvel_mean            =   1.9708237452262E-07
(PID.TID 0000.0001) %MON dynstat_uvel_sd              =   5.9617110066534E-03
(PID.TID 0000.0001) %MON dynstat_uvel_del2            =   7.7314019803036E-06
(PID.TID 0000.0001) %MON dynstat_vvel_max             =   8.0465901359955E-02
(PID.TID 0000.0001) %MON dynstat_vvel_min             =  -3.6735509434274E-02
(PID.TID 0000.0001) %MON dynstat_vvel_mean            =  -6.3805048437076E-09
(PID.TID 0000.0001) %MON dynstat_vvel_sd              =   1.4813118788777E-02
(PID.TID 0000.0001) %MON dynstat_vvel_del2            =   7.3883197441626E-05
(PID.TID 0000.0001) %MON dynstat_wvel_max             =   1.9119315966964E-08
(PID.TID 0000.0001) %MON dynstat_wvel_min             =  -1.0190427645575E-08
(PID.TID 0000.0001) %MON dynstat_wvel_mean            =  -1.3795995022924E-21
(PID.TID 0000.0001) %MON dynstat_wvel_sd              =   6.7183176003375E-09
(PID.TID 0000.0001) %MON dynstat_wvel_del2            =   2.8207711559441E-12
(PID.TID 0000.0001) %MON dynstat_theta_max            =   2.0000000000000E+01
(PID.TID 0000.0001) %MON dynstat_theta_min            =   2.0000000000000E+01
(PID.TID 0000.0001) %MON dynstat_theta_mean           =   2.0000000000000E+01
(PID.TID 0000.0001) %MON dynstat_theta_sd             =   0.0000000000000E+00
(PID.TID 0000.0001) %MON dynstat_theta_del2           =   0.0000000000000E+00
(PID.TID 0000.0001) %MON dynstat_salt_max             =   3.0000000000000E+01
(PID.TID 0000.0001) %MON dynstat_salt_min             =   3.0000000000000E+01
(PID.TID 0000.0001) %MON dynstat_salt_mean            =   3.0000000000000E+01
(PID.TID 0000.0001) %MON dynstat_salt_sd              =   0.0000000000000E+00
(PID.TID 0000.0001) %MON dynstat_salt_del2            =   0.0000000000000E+00
(PID.TID 0000.0001) %MON trAdv_CFL_u_max              =   1.7918084611682E-03
(PID.TID 0000.0001) %MON trAdv_CFL_v_max              =   4.8283607646559E-03
(PID.TID 0000.0001) %MON trAdv_CFL_w_max              =   4.5879060571664E-09
(PID.TID 0000.0001) %MON advcfl_uvel_max              =   1.7917616988833E-03
(PID.TID 0000.0001) %MON advcfl_vvel_max              =   4.8279540815973E-03
(PID.TID 0000.0001) %MON advcfl_wvel_max              =   9.1772716641426E-09
(PID.TID 0000.0001) %MON advcfl_W_hf_max              =   0.0000000000000E+00
(PID.TID 0000.0001) %MON pe_b_mean                    =   2.0827167011595E-07
(PID.TID 0000.0001) %MON ke_max                       =   3.2343993355158E-03
(PID.TID 0000.0001) %MON ke_mean                      =   1.2536048915461E-04
(PID.TID 0000.0001) %MON ke_vol                       =   7.2000000000000E+15
(PID.TID 0000.0001) %MON vort_r_min                   =  -1.5512453739871E-06
(PID.TID 0000.0001) %MON vort_r_max                   =   2.1727569178452E-06
(PID.TID 0000.0001) %MON vort_a_mean                  =   1.0600000000000E-04
(PID.TID 0000.0001) %MON vort_a_sd                    =   3.5365878414336E-06
(PID.TID 0000.0001) %MON vort_p_mean                  =   1.1130000000000E-04
(PID.TID 0000.0001) %MON vort_p_sd                    =   4.1151275813477E-05
(PID.TID 0000.0001) %MON surfExpan_theta_mean         =  -2.7617693317457E-20
(PID.TID 0000.0001) %MON surfExpan_salt_mean          =  -4.1422751648510E-20
(PID.TID 0000.0001) // =======================================================
(PID.TID 0000.0001) // End MONITOR dynamic field statistics
(PID.TID 0000.0001) // =======================================================
 cg2d: Sum(rhs),rhsMax =  -5.01751835348147E-04  1.34508977416140E-01
 cg2d: Sum(rhs),rhsMax =  -5.01448263822917E-04  1.34498451900584E-01
 cg2d: Sum(rhs),rhsMax =  -5.01144881990002E-04  1.34487933893416E-01
 cg2d: Sum(rhs),rhsMax =  -5.00841689451518E-04  1.34477423412471E-01
 cg2d: Sum(rhs),rhsMax =  -5.00538685897417E-04  1.34466920475566E-01
 cg2d: Sum(rhs),rhsMax =  -5.00235870901027E-04  1.34456425100498E-01
 cg2d: Sum(rhs),rhsMax =  -4.99933244250638E-04  1.34445937305044E-01
 cg2d: Sum(rhs),rhsMax =  -4.99630805492566E-04  1.34435457106962E-01
 cg2d: Sum(rhs),rhsMax =  -4.99328554190968E-04  1.34424984523992E-01
 cg2d: Sum(rhs),rhsMax =  -4.99026490122977E-04  1.34414519573853E-01
 cg2d: Sum(rhs),rhsMax =  -4.98724612814080E-04  1.34404062274244E-01
 cg2d: Sum(rhs),rhsMax =  -4.98422921914531E-04  1.34393612642846E-01
 cg2d: Sum(rhs),rhsMax =  -4.98121417052309E-04  1.34383170697320E-01
 cg2d: Sum(rhs),rhsMax =  -4.97820097785734E-04  1.34372736455307E-01
 cg2d: Sum(rhs),rhsMax =  -4.97518963869978E-04  1.34362309934428E-01
 cg2d: Sum(rhs),rhsMax =  -4.97218014751820E-04  1.34351891152284E-01
 cg2d: Sum(rhs),rhsMax =  -4.96917250106347E-04  1.34341480126459E-01
 cg2d: Sum(rhs),rhsMax =  -4.96616669548435E-04  1.34331076874513E-01
 cg2d: Sum(rhs),rhsMax =  -4.96316272690122E-04  1.34320681413989E-01
 cg2d: Sum(rhs),rhsMax =  -4.96016059089509E-04  1.34310293762410E-01
 cg2d: Sum(rhs),rhsMax =  -4.95716028367592E-04  1.34299913937278E-01
 cg2d: Sum(rhs),rhsMax =  -4.95416180079702E-04  1.34289541956076E-01
 cg2d: Sum(rhs),rhsMax =  -4.95116513856684E-04  1.34279177836266E-01
 cg2d: Sum(rhs),rhsMax =  -4.94817029349852E-04  1.34268821595291E-01
 cg2d: Sum(rhs),rhsMax =  -4.94517725958621E-04  1.34258473250572E-01
 cg2d: Sum(rhs),rhsMax =  -4.94218603461270E-04  1.34248132819514E-01
 cg2d: Sum(rhs),rhsMax =  -4.93919661207562E-04  1.34237800319497E-01
 cg2d: Sum(rhs),rhsMax =  -4.93620898969386E-04  1.34227475767884E-01
 cg2d: Sum(rhs),rhsMax =  -4.93322316216108E-04  1.34217159182016E-01
 cg2d: Sum(rhs),rhsMax =  -4.93023912524386E-04  1.34206850579215E-01
 cg2d: Sum(rhs),rhsMax =  -4.92725687489178E-04  1.34196549976782E-01
 cg2d: Sum(rhs),rhsMax =  -4.92427640638914E-04  1.34186257391998E-01
 cg2d: Sum(rhs),rhsMax =  -4.92129771585349E-04  1.34175972842123E-01
 cg2d: Sum(rhs),rhsMax =  -4.91832079866638E-04  1.34165696344397E-01
 cg2d: Sum(rhs),rhsMax =  -4.91534565020260E-04  1.34155427916040E-01
 cg2d: Sum(rhs),rhsMax =  -4.91237226579409E-04  1.34145167574250E-01
 cg2d: Sum(rhs),rhsMax =  -4.90940064143604E-04  1.34134915336207E-01
 cg2d: Sum(rhs),rhsMax =  -4.90643077273212E-04  1.34124671219068E-01
 cg2d: Sum(rhs),rhsMax =  -4.90346265391699E-04  1.34114435239970E-01
 cg2d: Sum(rhs),rhsMax =  -4.90049628235566E-04  1.34104207416029E-01
 cg2d: Sum(rhs),rhsMax =  -4.89753165217875E-04  1.34093987764341E-01
 cg2d: Sum(rhs),rhsMax =  -4.89456875914459E-04  1.34083776301983E-01
 cg2d: Sum(rhs),rhsMax =  -4.89160759848582E-04  1.34073573046007E-01
 cg2d: Sum(rhs),rhsMax =  -4.88864816588350E-04  1.34063378013448E-01
 cg2d: Sum(rhs),rhsMax =  -4.88569045625868E-04  1.34053191221317E-01
 cg2d: Sum(rhs),rhsMax =  -4.88273446499671E-04  1.34043012686607E-01
 cg2d: Sum(rhs),rhsMax =  -4.87978018752640E-04  1.34032842426288E-01
 cg2d: Sum(rhs),rhsMax =  -4.87682761892119E-04  1.34022680457311E-01
 cg2d: Sum(rhs),rhsMax =  -4.87387675447424E-04  1.34012526796603E-01
 cg2d: Sum(rhs),rhsMax =  -4.87092758972588E-04  1.34002381461073E-01
 cg2d: Sum(rhs),rhsMax =  -4.86798012015133E-04  1.33992244467607E-01
 cg2d: Sum(rhs),rhsMax =  -4.86503434130825E-04  1.33982115833071E-01
 cg2d: Sum(rhs),rhsMax =  -4.86209024684311E-04  1.33971995574308E-01
 cg2d: Sum(rhs),rhsMax =  -4.85914783290901E-04  1.33961883708142E-01
 cg2d: Sum(rhs),rhsMax =  -4.85620709435310E-04  1.33951780251375E-01
 cg2d: Sum(rhs),rhsMax =  -4.85326802671115E-04  1.33941685220788E-01
 cg2d: Sum(rhs),rhsMax =  -4.85033062532358E-04  1.33931598633138E-01
 cg2d: Sum(rhs),rhsMax =  -4.84739488497254E-04  1.33921520505165E-01
 cg2d: Sum(rhs),rhsMax =  -4.84446080102099E-04  1.33911450853584E-01
 cg2d: Sum(rhs),rhsMax =  -4.84152836843218E-04  1.33901389695091E-01
 cg2d: Sum(rhs),rhsMax =  -4.83859758255724E-04  1.33891337046359E-01
 cg2d: Sum(rhs),rhsMax =  -4.83566843717932E-04  1.33881292924041E-01
 cg2d: Sum(rhs),rhsMax =  -4.83274092945930E-04  1.33871257344766E-01
 cg2d: Sum(rhs),rhsMax =  -4.82981505322375E-04  1.33861230325143E-01
 cg2d: Sum(rhs),rhsMax =  -4.82689080294221E-04  1.33851211881759E-01
 cg2d: Sum(rhs),rhsMax =  -4.82396817565345E-04  1.33841202031180E-01
 cg2d: Sum(rhs),rhsMax =  -4.82104716540618E-04  1.33831200789950E-01
 cg2d: Sum(rhs),rhsMax =  -4.81812776681795E-04  1.33821208174591E-01
 cg2d: Sum(rhs),rhsMax =  -4.81520997536118E-04  1.33811224201604E-01
 cg2d: Sum(rhs),rhsMax =  -4.81229378601272E-04  1.33801248887465E-01
 cg2d: Sum(rhs),rhsMax =  -4.80937919406834E-04  1.33791282248633E-01
 cg2d: Sum(rhs),rhsMax =  -4.80646619421024E-04  1.33781324301541E-01
(PID.TID 0000.0001)      cg2d_init_res =   1.25262424893312E-03
(PID.TID 0000.0001)      cg2d_iters(min,last) =      -1      78
(PID.TID 0000.0001)      cg2d_last_res =   9.92197839793337E-08
(PID.TID 0000.0001) // =======================================================
(PID.TID 0000.0001) // Begin MONITOR dynamic field statistics
(PID.TID 0000.0001) // =======================================================
(PID.TID 0000.0001) %MON time_tsnumber                =                  7344
(PID.TID 0000.0001) %MON time_secondsf                =   8.8128000000000E+06
(PID.TID 0000.0001) %MON dynstat_eta_max              =   4.4535563080046E-02
(PID.TID 0000.0001) %MON dynstat_eta_min              =  -1.9103736937506E-02
(PID.TID 0000.0001) %MON dynstat_eta_mean             =   3.2128906412189E-07
(PID.TID 0000.0001) %MON dynstat_eta_sd               =   1.4467593714344E-02
(PID.TID 0000.0001) %MON dynstat_eta_del2             =   1.8224906438923E-05
(PID.TID 0000.0001) %MON dynstat_uvel_max             =   2.9809217316991E-02
(PID.TID 0000.0001) %MON dynstat_uvel_min             =  -1.5601809111911E-02
(PID.TID 0000.0001) %MON dynstat_uvel_mean            =   1.7438157621096E-07
(PID.TID 0000.0001) %MON dynstat_uvel_sd              =   6.0006026959898E-03
(PID.TID 0000.0001) %MON dynstat_uvel_del2            =   7.7435891624113E-06
(PID.TID 0000.0001) %MON dynstat_vvel_max             =   7.9987952973445E-02
(PID.TID 0000.0001) %MON dynstat_vvel_min             =  -3.6668585425874E-02
(PID.TID 0000.0001) %MON dynstat_vvel_mean            =  -7.2283091177880E-09
(PID.TID 0000.0001) %MON dynstat_vvel_sd              =   1.4758116379700E-02
(PID.TID 0000.0001) %MON dynstat_vvel_del2            =   7.3664577184051E-05
(PID.TID 0000.0001) %MON dynstat_wvel_max             =   1.9260394118319E-08
(PID.TID 0000.0001) %MON dynstat_wvel_min             =  -9.9886480317218E-09
(PID.TID 0000.0001) %MON dynstat_wvel_mean            =  -2.9219033118958E-23
(PID.TID 0000.0001) %MON dynstat_wvel_sd              =   6.6934516660835E-09
(PID.TID 0000.0001) %MON dynstat_wvel_del2            =   2.8038396073936E-12
(PID.TID 0000.0001) %MON dynstat_theta_max            =   2.0000000000000E+01
(PID.TID 0000.0001) %MON dynstat_theta_min            =   2.0000000000000E+01
(PID.TID 0000.0001) %MON dynstat_theta_mean           =   2.0000000000000E+01
(PID.TID 0000.0001) %MON dynstat_theta_sd             =   0.0000000000000E+00
(PID.TID 0000.0001) %MON dynstat_theta_del2           =   0.0000000000000E+00
(PID.TID 0000.0001) %MON dynstat_salt_max             =   3.0000000000000E+01
(PID.TID 0000.0001) %MON dynstat_salt_min             =   3.0000000000000E+01
(PID.TID 0000.0001) %MON dynstat_salt_mean            =   3.0000000000000E+01
(PID.TID 0000.0001) %MON dynstat_salt_sd              =   0.0000000000000E+00
(PID.TID 0000.0001) %MON dynstat_salt_del2            =   0.0000000000000E+00
(PID.TID 0000.0001) %MON trAdv_CFL_u_max              =   1.7885952776129E-03
(PID.TID 0000.0001) %MON trAdv_CFL_v_max              =   4.7996667412751E-03
(PID.TID 0000.0001) %MON trAdv_CFL_w_max              =   4.6217020799406E-09
(PID.TID 0000.0001) %MON advcfl_uvel_max              =   1.7885530390195E-03
(PID.TID 0000.0001) %MON advcfl_vvel_max              =   4.7992771784067E-03
(PID.TID 0000.0001) %MON advcfl_wvel_max              =   9.2449891767930E-09
(PID.TID 0000.0001) %MON advcfl_W_hf_max              =   0.0000000000000E+00
(PID.TID 0000.0001) %MON pe_b_mean                    =   2.0533435389480E-07
(PID.TID 0000.0001) %MON ke_max                       =   3.1952410352262E-03
(PID.TID 0000.0001) %MON ke_mean                      =   1.2478953897933E-04
(PID.TID 0000.0001) %MON ke_vol                       =   7.2000000000000E+15
(PID.TID 0000.0001) %MON vort_r_min                   =  -1.5463020484269E-06
(PID.TID 0000.0001) %MON vort_r_max                   =   2.1604961185280E-06
(PID.TID 0000.0001) %MON vort_a_mean                  =   1.0600000000000E-04
(PID.TID 0000.0001) %MON vort_a_sd                    =   3.5364845823351E-06
(PID.TID 0000.0001) %MON vort_p_mean                  =   1.1130000000000E-04
(PID.TID 0000.0001) %MON vort_p_sd                    =   4.1151376483893E-05
(PID.TID 0000.0001) %MON surfExpan_theta_mean         =  -6.0190864638167E-22
(PID.TID 0000.0001) %MON surfExpan_salt_mean          =  -9.0696832760134E-22
(PID.TID 0000.0001) // =======================================================
(PID.TID 0000.0001) // End MONITOR dynamic field statistics
(PID.TID 0000.0001) // =======================================================
 cg2d: Sum(rhs),rhsMax =  -4.80355478097643E-04  1.33771375062603E-01
 cg2d: Sum(rhs),rhsMax =  -4.80064495028911E-04  1.33761434548210E-01
 cg2d: Sum(rhs),rhsMax =  -4.79773669706711E-04  1.33751502774728E-01
 cg2d: Sum(rhs),rhsMax =  -4.79483001557070E-04  1.33741579758508E-01
 cg2d: Sum(rhs),rhsMax =  -4.79192490200724E-04  1.33731665515871E-01
 cg2d: Sum(rhs),rhsMax =  -4.78902135098163E-04  1.33721760063122E-01
 cg2d: Sum(rhs),rhsMax =  -4.78611935684933E-04  1.33711863416540E-01
 cg2d: Sum(rhs),rhsMax =  -4.78321891396152E-04  1.33701975592383E-01
 cg2d: Sum(rhs),rhsMax =  -4.78032001960174E-04  1.33692096606888E-01
 cg2d: Sum(rhs),rhsMax =  -4.77742266753142E-04  1.33682226476268E-01
 cg2d: Sum(rhs),rhsMax =  -4.77452685310603E-04  1.33672365216714E-01
 cg2d: Sum(rhs),rhsMax =  -4.77163257163677E-04  1.33662512844396E-01
 cg2d: Sum(rhs),rhsMax =  -4.76873981713863E-04  1.33652669375459E-01
 cg2d: Sum(rhs),rhsMax =  -4.76584858493154E-04  1.33642834826029E-01
 cg2d: Sum(rhs),rhsMax =  -4.76295887067000E-04  1.33633009212207E-01
 cg2d: Sum(rhs),rhsMax =  -4.76064550844658E-04  1.33623192564923E-01
 cg2d: Sum(rhs),rhsMax =  -4.75833415282322E-04  1.33613384874798E-01
 cg2d: Sum(rhs),rhsMax =  -4.75602414726724E-04  1.33603586160756E-01
 cg2d: Sum(rhs),rhsMax =  -4.75371538669363E-04  1.33593796451388E-01
 cg2d: Sum(rhs),rhsMax =  -4.75140774057706E-04  1.33584015756661E-01
 cg2d: Sum(rhs),rhsMax =  -4.74910120246720E-04  1.33574244092200E-01
 cg2d: Sum(rhs),rhsMax =  -4.74679582844177E-04  1.33564481474394E-01
 cg2d: Sum(rhs),rhsMax =  -4.74449167972867E-04  1.33554727919778E-01
 cg2d: Sum(rhs),rhsMax =  -4.74218878894387E-04  1.33544983444724E-01
 cg2d: Sum(rhs),rhsMax =  -4.73988715882431E-04  1.33535248065350E-01
 cg2d: Sum(rhs),rhsMax =  -4.73758677397376E-04  1.33525521797514E-01
 cg2d: Sum(rhs),rhsMax =  -4.73528761749351E-04  1.33515804656910E-01
 cg2d: Sum(rhs),rhsMax =  -4.73298968031755E-04  1.33506096659199E-01
 cg2d: Sum(rhs),rhsMax =  -4.73069295919231E-04  1.33496397820086E-01
 cg2d: Sum(rhs),rhsMax =  -4.72839745680868E-04  1.33486708155325E-01
 cg2d: Sum(rhs),rhsMax =  -4.72610317568485E-04  1.33477027680683E-01
 cg2d: Sum(rhs),rhsMax =  -4.72381011884494E-04  1.33467356411907E-01
 cg2d: Sum(rhs),rhsMax =  -4.72151828460402E-04  1.33457694364705E-01
 cg2d: Sum(rhs),rhsMax =  -4.71922767138154E-04  1.33448041554745E-01
 cg2d: Sum(rhs),rhsMax =  -4.71693827748016E-04  1.33438397997667E-01
 cg2d: Sum(rhs),rhsMax =  -4.71465010273483E-04  1.33428763709089E-01
 cg2d: Sum(rhs),rhsMax =  -4.71236314543205E-04  1.33419138704605E-01
 cg2d: Sum(rhs),rhsMax =  -4.71007740465731E-04  1.33409522999794E-01
 cg2d: Sum(rhs),rhsMax =  -4.70779288164620E-04  1.33399916610208E-01
 cg2d: Sum(rhs),rhsMax =  -4.70550957481501E-04  1.33390319551379E-01
 cg2d: Sum(rhs),rhsMax =  -4.70322748357287E-04  1.33380731838811E-01
 cg2d: Sum(rhs),rhsMax =  -4.70094660748837E-04  1.33371153487985E-01
 cg2d: Sum(rhs),rhsMax =  -4.69866694666280E-04  1.33361584514357E-01
 cg2d: Sum(rhs),rhsMax =  -4.69638850089524E-04  1.33352024933362E-01
 cg2d: Sum(rhs),rhsMax =  -4.69411126817683E-04  1.33342474760410E-01
 cg2d: Sum(rhs),rhsMax =  -4.69183525033529E-04  1.33332934010890E-01
 cg2d: Sum(rhs),rhsMax =  -4.68956044585808E-04  1.33323402700167E-01
 cg2d: Sum(rhs),rhsMax =  -4.68728685482879E-04  1.33313880843582E-01
 cg2d: Sum(rhs),rhsMax =  -4.68501447657753E-04  1.33304368456451E-01
 cg2d: Sum(rhs),rhsMax =  -4.68274331196655E-04  1.33294865554070E-01
 cg2d: Sum(rhs),rhsMax =  -4.68047336053139E-04  1.33285372151705E-01
 cg2d: Sum(rhs),rhsMax =  -4.67820462173709E-04  1.33275888264605E-01
 cg2d: Sum(rhs),rhsMax =  -4.67593709578083E-04  1.33266413907987E-01
 cg2d: Sum(rhs),rhsMax =  -4.67367078306682E-04  1.33256949097053E-01
 cg2d: Sum(rhs),rhsMax =  -4.67140568457879E-04  1.33247493846975E-01
 cg2d: Sum(rhs),rhsMax =  -4.66914179813979E-04  1.33238048172905E-01
 cg2d: Sum(rhs),rhsMax =  -4.66687912556408E-04  1.33228612089967E-01
 cg2d: Sum(rhs),rhsMax =  -4.66461766652978E-04  1.33219185613266E-01
 cg2d: Sum(rhs),rhsMax =  -4.66235742295517E-04  1.33209768757877E-01
 cg2d: Sum(rhs),rhsMax =  -4.66009839280390E-04  1.33200361538857E-01
 cg2d: Sum(rhs),rhsMax =  -4.65784057752949E-04  1.33190963971237E-01
 cg2d: Sum(rhs),rhsMax =  -4.65558397767805E-04  1.33181576070020E-01
 cg2d: Sum(rhs),rhsMax =  -4.65332859372486E-04  1.33172197850191E-01
 cg2d: Sum(rhs),rhsMax =  -4.65107442631950E-04  1.33162829326704E-01
 cg2d: Sum(rhs),rhsMax =  -4.64882147607718E-04  1.33153470514496E-01
 cg2d: Sum(rhs),rhsMax =  -4.64656974298812E-04  1.33144121428475E-01
 cg2d: Sum(rhs),rhsMax =  -4.64431922862249E-04  1.33134782083526E-01
 cg2d: Sum(rhs),rhsMax =  -4.64206993297410E-04  1.33125452494509E-01
 cg2d: Sum(rhs),rhsMax =  -4.63982185698568E-04  1.33116132676262E-01
 cg2d: Sum(rhs),rhsMax =  -4.63757500178294E-04  1.33106822643596E-01
 cg2d: Sum(rhs),rhsMax =  -4.63532936860417E-04  1.33097522411298E-01
 cg2d: Sum(rhs),rhsMax =  -4.63308495748405E-04  1.33088231994132E-01
(PID.TID 0000.0001)      cg2d_init_res =   1.25385585890549E-03
(PID.TID 0000.0001)      cg2d_iters(min,last) =      -1      79
(PID.TID 0000.0001)      cg2d_last_res =   8.74855655790202E-08
(PID.TID 0000.0001) // =======================================================
(PID.TID 0000.0001) // Begin MONITOR dynamic field statistics
(PID.TID 0000.0001) // =======================================================
(PID.TID 0000.0001) %MON time_tsnumber                =                  7416
(PID.TID 0000.0001) %MON time_secondsf                =   8.8992000000000E+06
(PID.TID 0000.0001) %MON dynstat_eta_max              =   4.3747273883213E-02
(PID.TID 0000.0001) %MON dynstat_eta_min              =  -1.9467205696808E-02
(PID.TID 0000.0001) %MON dynstat_eta_mean             =   3.0813378347646E-07
(PID.TID 0000.0001) %MON dynstat_eta_sd               =   1.4408170685452E-02
(PID.TID 0000.0001) %MON dynstat_eta_del2             =   1.8176905257808E-05
(PID.TID 0000.0001) %MON dynstat_uvel_max             =   2.9761852620880E-02
(PID.TID 0000.0001) %MON dynstat_uvel_min             =  -1.5591977596924E-02
(PID.TID 0000.0001) %MON dynstat_uvel_mean            =   1.4931083861166E-07
(PID.TID 0000.0001) %MON dynstat_uvel_sd              =   6.0517192842308E-03
(PID.TID 0000.0001) %MON dynstat_uvel_del2            =   7.7638577452928E-06
(PID.TID 0000.0001) %MON dynstat_vvel_max             =   7.9532590834909E-02
(PID.TID 0000.0001) %MON dynstat_vvel_min             =  -3.6565126591694E-02
(PID.TID 0000.0001) %MON dynstat_vvel_mean            =  -7.9864626488278E-09
(PID.TID 0000.0001) %MON dynstat_vvel_sd              =   1.4707766085595E-02
(PID.TID 0000.0001) %MON dynstat_vvel_del2            =   7.3452478044122E-05
(PID.TID 0000.0001) %MON dynstat_wvel_max             =   1.9386939160468E-08
(PID.TID 0000.0001) %MON dynstat_wvel_min             =  -9.7877515986329E-09
(PID.TID 0000.0001) %MON dynstat_wvel_mean            =   1.5601123474577E-21
(PID.TID 0000.0001) %MON dynstat_wvel_sd              =   6.6692177724241E-09
(PID.TID 0000.0001) %MON dynstat_wvel_del2            =   2.7807138287794E-12
(PID.TID 0000.0001) %MON dynstat_theta_max            =   2.0000000000000E+01
(PID.TID 0000.0001) %MON dynstat_theta_min            =   2.0000000000000E+01
(PID.TID 0000.0001) %MON dynstat_theta_mean           =   2.0000000000000E+01
(PID.TID 0000.0001) %MON dynstat_theta_sd             =   0.0000000000000E+00
(PID.TID 0000.0001) %MON dynstat_theta_del2           =   0.0000000000000E+00
(PID.TID 0000.0001) %MON dynstat_salt_max             =   3.0000000000000E+01
(PID.TID 0000.0001) %MON dynstat_salt_min             =   3.0000000000000E+01
(PID.TID 0000.0001) %MON dynstat_salt_mean            =   3.0000000000000E+01
(PID.TID 0000.0001) %MON dynstat_salt_sd              =   0.0000000000000E+00
(PID.TID 0000.0001) %MON dynstat_salt_del2            =   0.0000000000000E+00
(PID.TID 0000.0001) %MON trAdv_CFL_u_max              =   1.7857477587873E-03
(PID.TID 0000.0001) %MON trAdv_CFL_v_max              =   4.7723245759713E-03
(PID.TID 0000.0001) %MON trAdv_CFL_w_max              =   4.6527935922844E-09
(PID.TID 0000.0001) %MON advcfl_uvel_max              =   1.7857111572528E-03
(PID.TID 0000.0001) %MON advcfl_vvel_max              =   4.7719554500945E-03
(PID.TID 0000.0001) %MON advcfl_wvel_max              =   9.3057307970244E-09
(PID.TID 0000.0001) %MON advcfl_W_hf_max              =   0.0000000000000E+00
(PID.TID 0000.0001) %MON pe_b_mean                    =   2.0365107032673E-07
(PID.TID 0000.0001) %MON ke_max                       =   3.1584192074092E-03
(PID.TID 0000.0001) %MON ke_mean                      =   1.2436299736015E-04
(PID.TID 0000.0001) %MON ke_vol                       =   7.2000000000000E+15
(PID.TID 0000.0001) %MON vort_r_min                   =  -1.5413375916322E-06
(PID.TID 0000.0001) %MON vort_r_max                   =   2.1491814078521E-06
(PID.TID 0000.0001) %MON vort_a_mean                  =   1.0600000000000E-04
(PID.TID 0000.0001) %MON vort_a_sd                    =   3.5363883968501E-06
(PID.TID 0000.0001) %MON vort_p_mean                  =   1.1130000000000E-04
(PID.TID 0000.0001) %MON vort_p_sd                    =   4.1151484394604E-05
(PID.TID 0000.0001) %MON surfExpan_theta_mean         =   3.1187447686105E-20
(PID.TID 0000.0001) %MON surfExpan_salt_mean          =   4.6775807918367E-20
(PID.TID 0000.0001) // =======================================================
(PID.TID 0000.0001) // End MONITOR dynamic field statistics
(PID.TID 0000.0001) // =======================================================
 cg2d: Sum(rhs),rhsMax =  -4.63084177086519E-04  1.33078951406836E-01
 cg2d: Sum(rhs),rhsMax =  -4.62859980795669E-04  1.33069680664125E-01
 cg2d: Sum(rhs),rhsMax =  -4.62635907105336E-04  1.33060419780689E-01
 cg2d: Sum(rhs),rhsMax =  -4.62411956105624E-04  1.33051168771190E-01
 cg2d: Sum(rhs),rhsMax =  -4.62188127972137E-04  1.33041927650272E-01
 cg2d: Sum(rhs),rhsMax =  -4.61964422778227E-04  1.33032696432549E-01
 cg2d: Sum(rhs),rhsMax =  -4.61740840644286E-04  1.33023475132611E-01
 cg2d: Sum(rhs),rhsMax =  -4.61517381741214E-04  1.33014263765027E-01
 cg2d: Sum(rhs),rhsMax =  -4.61294046332623E-04  1.33005062344336E-01
 cg2d: Sum(rhs),rhsMax =  -4.61070834393242E-04  1.32995870885056E-01
 cg2d: Sum(rhs),rhsMax =  -4.60847746187473E-04  1.32986689401679E-01
 cg2d: Sum(rhs),rhsMax =  -4.60624781846198E-04  1.32977517908674E-01
 cg2d: Sum(rhs),rhsMax =  -4.60401941481696E-04  1.32968356420479E-01
 cg2d: Sum(rhs),rhsMax =  -4.60179225323251E-04  1.32959204951515E-01
 cg2d: Sum(rhs),rhsMax =  -4.59956633593121E-04  1.32950063516173E-01
 cg2d: Sum(rhs),rhsMax =  -4.59734166379105E-04  1.32940932128820E-01
 cg2d: Sum(rhs),rhsMax =  -4.59511824004701E-04  1.32931810803800E-01
 cg2d: Sum(rhs),rhsMax =  -4.59289606538980E-04  1.32922699555429E-01
 cg2d: Sum(rhs),rhsMax =  -4.59067514210493E-04  1.32913598398001E-01
 cg2d: Sum(rhs),rhsMax =  -4.58845547250285E-04  1.32904507345781E-01
 cg2d: Sum(rhs),rhsMax =  -4.58623705930164E-04  1.32895426413013E-01
 cg2d: Sum(rhs),rhsMax =  -4.58401990482019E-04  1.32886355613913E-01
 cg2d: Sum(rhs),rhsMax =  -4.58180401029614E-04  1.32877294962674E-01
 cg2d: Sum(rhs),rhsMax =  -4.57958937864206E-04  1.32868244473460E-01
 cg2d: Sum(rhs),rhsMax =  -4.57737601211206E-04  1.32859204160415E-01
 cg2d: Sum(rhs),rhsMax =  -4.57516391336338E-04  1.32850174037655E-01
 cg2d: Sum(rhs),rhsMax =  -4.57295308460845E-04  1.32841154119268E-01
 cg2d: Sum(rhs),rhsMax =  -4.57074352939635E-04  1.32832144419321E-01
 cg2d: Sum(rhs),rhsMax =  -4.56853524912254E-04  1.32823144951854E-01
 cg2d: Sum(rhs),rhsMax =  -4.56632824789721E-04  1.32814155730881E-01
 cg2d: Sum(rhs),rhsMax =  -4.56412252664103E-04  1.32805176770392E-01
 cg2d: Sum(rhs),rhsMax =  -4.56191808989610E-04  1.32796208084350E-01
 cg2d: Sum(rhs),rhsMax =  -4.55971494005674E-04  1.32787249686693E-01
 cg2d: Sum(rhs),rhsMax =  -4.55751307938412E-04  1.32778301591334E-01
 cg2d: Sum(rhs),rhsMax =  -4.55531251154168E-04  1.32769363812158E-01
 cg2d: Sum(rhs),rhsMax =  -4.55311324062173E-04  1.32760436363028E-01
 cg2d: Sum(rhs),rhsMax =  -4.55091526768269E-04  1.32751519257781E-01
 cg2d: Sum(rhs),rhsMax =  -4.54871859711626E-04  1.32742612510225E-01
 cg2d: Sum(rhs),rhsMax =  -4.54652323242997E-04  1.32733716134145E-01
 cg2d: Sum(rhs),rhsMax =  -4.54432917598515E-04  1.32724830143299E-01
 cg2d: Sum(rhs),rhsMax =  -4.54213643220533E-04  1.32715954551421E-01
 cg2d: Sum(rhs),rhsMax =  -4.53994500385275E-04  1.32707089372217E-01
 cg2d: Sum(rhs),rhsMax =  -4.53775489540650E-04  1.32698234619369E-01
 cg2d: Sum(rhs),rhsMax =  -4.53556610940984E-04  1.32689390306533E-01
 cg2d: Sum(rhs),rhsMax =  -4.53337865096499E-04  1.32680556447337E-01
 cg2d: Sum(rhs),rhsMax =  -4.53119252206034E-04  1.32671733055385E-01
 cg2d: Sum(rhs),rhsMax =  -4.52900772732756E-04  1.32662920144255E-01
 cg2d: Sum(rhs),rhsMax =  -4.52682427092001E-04  1.32654117727499E-01
 cg2d: Sum(rhs),rhsMax =  -4.52464215615330E-04  1.32645325818642E-01
 cg2d: Sum(rhs),rhsMax =  -4.52246138662089E-04  1.32636544431185E-01
 cg2d: Sum(rhs),rhsMax =  -4.52028196730263E-04  1.32627773578599E-01
 cg2d: Sum(rhs),rhsMax =  -4.51810390235127E-04  1.32619013274334E-01
 cg2d: Sum(rhs),rhsMax =  -4.51592719467120E-04  1.32610263531810E-01
 cg2d: Sum(rhs),rhsMax =  -4.51375185017992E-04  1.32601524364424E-01
 cg2d: Sum(rhs),rhsMax =  -4.51157787190338E-04  1.32592795785543E-01
 cg2d: Sum(rhs),rhsMax =  -4.50940526560077E-04  1.32584077808510E-01
 cg2d: Sum(rhs),rhsMax =  -4.50723403438088E-04  1.32575370446642E-01
 cg2d: Sum(rhs),rhsMax =  -4.50506418340845E-04  1.32566673713230E-01
 cg2d: Sum(rhs),rhsMax =  -4.50289571731883E-04  1.32557987621538E-01
 cg2d: Sum(rhs),rhsMax =  -4.50072864040485E-04  1.32549312184802E-01
 cg2d: Sum(rhs),rhsMax =  -4.49856295701423E-04  1.32540647416236E-01
 cg2d: Sum(rhs),rhsMax =  -4.49639867271843E-04  1.32531993329022E-01
 cg2d: Sum(rhs),rhsMax =  -4.49423579174603E-04  1.32523349936321E-01
 cg2d: Sum(rhs),rhsMax =  -4.49207432030930E-04  1.32514717251264E-01
 cg2d: Sum(rhs),rhsMax =  -4.48991426175476E-04  1.32506095286956E-01
 cg2d: Sum(rhs),rhsMax =  -4.48775562147887E-04  1.32497484056478E-01
 cg2d: Sum(rhs),rhsMax =  -4.48559840556933E-04  1.32488883572881E-01
 cg2d: Sum(rhs),rhsMax =  -4.48344261825171E-04  1.32480293849191E-01
 cg2d: Sum(rhs),rhsMax =  -4.48128826425083E-04  1.32471714898407E-01
 cg2d: Sum(rhs),rhsMax =  -4.47913535050954E-04  1.32463146733504E-01
 cg2d: Sum(rhs),rhsMax =  -4.47698388137943E-04  1.32454589367426E-01
 cg2d: Sum(rhs),rhsMax =  -4.47483386203549E-04  1.32446042813093E-01
(PID.TID 0000.0001)      cg2d_init_res =   1.25551131848413E-03
(PID.TID 0000.0001)      cg2d_iters(min,last) =      -1      79
(PID.TID 0000.0001)      cg2d_last_res =   9.00262536363542E-08
(PID.TID 0000.0001) // =======================================================
(PID.TID 0000.0001) // Begin MONITOR dynamic field statistics
(PID.TID 0000.0001) // =======================================================
(PID.TID 0000.0001) %MON time_tsnumber                =                  7488
(PID.TID 0000.0001) %MON time_secondsf                =   8.9856000000000E+06
(PID.TID 0000.0001) %MON dynstat_eta_max              =   4.2964926071432E-02
(PID.TID 0000.0001) %MON dynstat_eta_min              =  -1.9856680938690E-02
(PID.TID 0000.0001) %MON dynstat_eta_mean             =   2.9617564547957E-07
(PID.TID 0000.0001) %MON dynstat_eta_sd               =   1.4393897200750E-02
(PID.TID 0000.0001) %MON dynstat_eta_del2             =   1.8129044760537E-05
(PID.TID 0000.0001) %MON dynstat_uvel_max             =   2.9721889833385E-02
(PID.TID 0000.0001) %MON dynstat_uvel_min             =  -1.5590799674627E-02
(PID.TID 0000.0001) %MON dynstat_uvel_mean            =   1.2219835409521E-07
(PID.TID 0000.0001) %MON dynstat_uvel_sd              =   6.1144721468305E-03
(PID.TID 0000.0001) %MON dynstat_uvel_del2            =   7.7923910506009E-06
(PID.TID 0000.0001) %MON dynstat_vvel_max             =   7.9103639508007E-02
(PID.TID 0000.0001) %MON dynstat_vvel_min             =  -3.6425548850701E-02
(PID.TID 0000.0001) %MON dynstat_vvel_mean            =  -8.6413588819087E-09
(PID.TID 0000.0001) %MON dynstat_vvel_sd              =   1.4662604360565E-02
(PID.TID 0000.0001) %MON dynstat_vvel_del2            =   7.3249754272644E-05
(PID.TID 0000.0001) %MON dynstat_wvel_max             =   1.9429576440307E-08
(PID.TID 0000.0001) %MON dynstat_wvel_min             =  -9.4929645606317E-09
(PID.TID 0000.0001) %MON dynstat_wvel_mean            =  -5.8970969500175E-21
(PID.TID 0000.0001) %MON dynstat_wvel_sd              =   6.6461414810275E-09
(PID.TID 0000.0001) %MON dynstat_wvel_del2            =   2.7607647268621E-12
(PID.TID 0000.0001) %MON dynstat_theta_max            =   2.0000000000000E+01
(PID.TID 0000.0001) %MON dynstat_theta_min            =   2.0000000000000E+01
(PID.TID 0000.0001) %MON dynstat_theta_mean           =   2.0000000000000E+01
(PID.TID 0000.0001) %MON dynstat_theta_sd             =   0.0000000000000E+00
(PID.TID 0000.0001) %MON dynstat_theta_del2           =   0.0000000000000E+00
(PID.TID 0000.0001) %MON dynstat_salt_max             =   3.0000000000000E+01
(PID.TID 0000.0001) %MON dynstat_salt_min             =   3.0000000000000E+01
(PID.TID 0000.0001) %MON dynstat_salt_mean            =   3.0000000000000E+01
(PID.TID 0000.0001) %MON dynstat_salt_sd              =   0.0000000000000E+00
(PID.TID 0000.0001) %MON dynstat_salt_del2            =   0.0000000000000E+00
(PID.TID 0000.0001) %MON trAdv_CFL_u_max              =   1.7833433209396E-03
(PID.TID 0000.0001) %MON trAdv_CFL_v_max              =   4.7465640044351E-03
(PID.TID 0000.0001) %MON trAdv_CFL_w_max              =   4.6629660917446E-09
(PID.TID 0000.0001) %MON advcfl_uvel_max              =   1.7833133900031E-03
(PID.TID 0000.0001) %MON advcfl_vvel_max              =   4.7462183704805E-03
(PID.TID 0000.0001) %MON advcfl_wvel_max              =   9.3261966913473E-09
(PID.TID 0000.0001) %MON advcfl_W_hf_max              =   0.0000000000000E+00
(PID.TID 0000.0001) %MON pe_b_mean                    =   2.0324777545593E-07
(PID.TID 0000.0001) %MON ke_max                       =   3.1254991149301E-03
(PID.TID 0000.0001) %MON ke_mean                      =   1.2408621200621E-04
(PID.TID 0000.0001) %MON ke_vol                       =   7.2000000000000E+15
(PID.TID 0000.0001) %MON vort_r_min                   =  -1.5360012700225E-06
(PID.TID 0000.0001) %MON vort_r_max                   =   2.1389057438272E-06
(PID.TID 0000.0001) %MON vort_a_mean                  =   1.0600000000000E-04
(PID.TID 0000.0001) %MON vort_a_sd                    =   3.5363004166439E-06
(PID.TID 0000.0001) %MON vort_p_mean                  =   1.1130000000000E-04
(PID.TID 0000.0001) %MON vort_p_sd                    =   4.1151598107459E-05
(PID.TID 0000.0001) %MON surfExpan_theta_mean         =  -1.1795254156116E-19
(PID.TID 0000.0001) %MON surfExpan_salt_mean          =  -1.7692537805184E-19
(PID.TID 0000.0001) // =======================================================
(PID.TID 0000.0001) // End MONITOR dynamic field statistics
(PID.TID 0000.0001) // =======================================================
 cg2d: Sum(rhs),rhsMax =  -4.47268529903759E-04  1.32437507083398E-01
 cg2d: Sum(rhs),rhsMax =  -4.47053819704993E-04  1.32428982191207E-01
 cg2d: Sum(rhs),rhsMax =  -4.46839256187070E-04  1.32420468149359E-01
 cg2d: Sum(rhs),rhsMax =  -4.46624839907245E-04  1.32411964970667E-01
 cg2d: Sum(rhs),rhsMax =  -4.46410571568511E-04  1.32403472667916E-01
 cg2d: Sum(rhs),rhsMax =  -4.46196451568528E-04  1.32394991253865E-01
 cg2d: Sum(rhs),rhsMax =  -4.45982480668437E-04  1.32386520741247E-01
 cg2d: Sum(rhs),rhsMax =  -4.45768659360454E-04  1.32378061142765E-01
 cg2d: Sum(rhs),rhsMax =  -4.45554988343462E-04  1.32369612471098E-01
 cg2d: Sum(rhs),rhsMax =  -4.45341468071035E-04  1.32361174738897E-01
 cg2d: Sum(rhs),rhsMax =  -4.45128099359986E-04  1.32352747958787E-01
 cg2d: Sum(rhs),rhsMax =  -4.44914882774020E-04  1.32344332143364E-01
 cg2d: Sum(rhs),rhsMax =  -4.44701818782004E-04  1.32335927305198E-01
 cg2d: Sum(rhs),rhsMax =  -4.44488908331287E-04  1.32327533456833E-01
 cg2d: Sum(rhs),rhsMax =  -4.44276151843420E-04  1.32319150610784E-01
 cg2d: Sum(rhs),rhsMax =  -4.44063550023481E-04  1.32310778779540E-01
 cg2d: Sum(rhs),rhsMax =  -4.43851103524133E-04  1.32302417975563E-01
 cg2d: Sum(rhs),rhsMax =  -4.43638813097482E-04  1.32294068211287E-01
 cg2d: Sum(rhs),rhsMax =  -4.43426679295394E-04  1.32285729499120E-01
 cg2d: Sum(rhs),rhsMax =  -4.43214702995869E-04  1.32277401851441E-01
 cg2d: Sum(rhs),rhsMax =  -4.43002884675961E-04  1.32269085280602E-01
 cg2d: Sum(rhs),rhsMax =  -4.42791225112108E-04  1.32260779798931E-01
 cg2d: Sum(rhs),rhsMax =  -4.42579725064574E-04  1.32252485418723E-01
 cg2d: Sum(rhs),rhsMax =  -4.42368385220770E-04  1.32244202152251E-01
 cg2d: Sum(rhs),rhsMax =  -4.42157206277358E-04  1.32235930011758E-01
 cg2d: Sum(rhs),rhsMax =  -4.41946188978762E-04  1.32227669009460E-01
 cg2d: Sum(rhs),rhsMax =  -4.41735334052950E-04  1.32219419157544E-01
 cg2d: Sum(rhs),rhsMax =  -4.41524642327324E-04  1.32211180468173E-01
 cg2d: Sum(rhs),rhsMax =  -4.41314114379472E-04  1.32202952953479E-01
 cg2d: Sum(rhs),rhsMax =  -4.41103751123596E-04  1.32194736625571E-01
 cg2d: Sum(rhs),rhsMax =  -4.40893553284096E-04  1.32186531496524E-01
 cg2d: Sum(rhs),rhsMax =  -4.40683521630508E-04  1.32178337578391E-01
 cg2d: Sum(rhs),rhsMax =  -4.40472829941771E-04  1.32170403040481E-01
 cg2d: Sum(rhs),rhsMax =  -4.40261343161999E-04  1.32162768979298E-01
 cg2d: Sum(rhs),rhsMax =  -4.40050030098825E-04  1.32155145065253E-01
 cg2d: Sum(rhs),rhsMax =  -4.39838891548225E-04  1.32147531309857E-01
 cg2d: Sum(rhs),rhsMax =  -4.39627928365264E-04  1.32139927724596E-01
 cg2d: Sum(rhs),rhsMax =  -4.39417141272167E-04  1.32132334320930E-01
 cg2d: Sum(rhs),rhsMax =  -4.39206531155594E-04  1.32124751110295E-01
 cg2d: Sum(rhs),rhsMax =  -4.38996098839203E-04  1.32117178104094E-01
 cg2d: Sum(rhs),rhsMax =  -4.38785845130374E-04  1.32109615313707E-01
 cg2d: Sum(rhs),rhsMax =  -4.38575770992797E-04  1.32102062750490E-01
 cg2d: Sum(rhs),rhsMax =  -4.38365877159852E-04  1.32094520425768E-01
 cg2d: Sum(rhs),rhsMax =  -4.38156164586634E-04  1.32086988350842E-01
 cg2d: Sum(rhs),rhsMax =  -4.37946634013610E-04  1.32079466536984E-01
 cg2d: Sum(rhs),rhsMax =  -4.37737286472606E-04  1.32071954995442E-01
 cg2d: Sum(rhs),rhsMax =  -4.37528122790453E-04  1.32064453737435E-01
 cg2d: Sum(rhs),rhsMax =  -4.37319143817505E-04  1.32056962774157E-01
 cg2d: Sum(rhs),rhsMax =  -4.37110350567952E-04  1.32049482116774E-01
 cg2d: Sum(rhs),rhsMax =  -4.36901743830333E-04  1.32042011776425E-01
 cg2d: Sum(rhs),rhsMax =  -4.36693324662301E-04  1.32034551764225E-01
 cg2d: Sum(rhs),rhsMax =  -4.36485093913463E-04  1.32027102091258E-01
 cg2d: Sum(rhs),rhsMax =  -4.36277052422562E-04  1.32019662768583E-01
 cg2d: Sum(rhs),rhsMax =  -4.36069201263572E-04  1.32012233807233E-01
 cg2d: Sum(rhs),rhsMax =  -4.35861541390752E-04  1.32004815218214E-01
 cg2d: Sum(rhs),rhsMax =  -4.35654073745104E-04  1.31997407012502E-01
 cg2d: Sum(rhs),rhsMax =  -4.35446799324122E-04  1.31990009201050E-01
 cg2d: Sum(rhs),rhsMax =  -4.35239719035862E-04  1.31982621794782E-01
 cg2d: Sum(rhs),rhsMax =  -4.35032833991087E-04  1.31975244804595E-01
 cg2d: Sum(rhs),rhsMax =  -4.34826145066786E-04  1.31967878241358E-01
 cg2d: Sum(rhs),rhsMax =  -4.34619653389289E-04  1.31960522115918E-01
 cg2d: Sum(rhs),rhsMax =  -4.34413359862843E-04  1.31953176439088E-01
 cg2d: Sum(rhs),rhsMax =  -4.34207265612749E-04  1.31945841221657E-01
 cg2d: Sum(rhs),rhsMax =  -4.34001371643992E-04  1.31938516474388E-01
 cg2d: Sum(rhs),rhsMax =  -4.33795678839839E-04  1.31931202208015E-01
 cg2d: Sum(rhs),rhsMax =  -4.33590188464907E-04  1.31923898433245E-01
 cg2d: Sum(rhs),rhsMax =  -4.33384901507410E-04  1.31916605160759E-01
 cg2d: Sum(rhs),rhsMax =  -4.33179819002497E-04  1.31909322401210E-01
 cg2d: Sum(rhs),rhsMax =  -4.32974942102600E-04  1.31902050165224E-01
 cg2d: Sum(rhs),rhsMax =  -4.32770271806726E-04  1.31894788463398E-01
 cg2d: Sum(rhs),rhsMax =  -4.32565809281490E-04  1.31887537306305E-01
 cg2d: Sum(rhs),rhsMax =  -4.32361555634367E-04  1.31880296704488E-01
(PID.TID 0000.0001)      cg2d_init_res =   1.25738818243331E-03
(PID.TID 0000.0001)      cg2d_iters(min,last) =      -1      79
(PID.TID 0000.0001)      cg2d_last_res =   9.35599730343995E-08
(PID.TID 0000.0001) // =======================================================
(PID.TID 0000.0001) // Begin MONITOR dynamic field statistics
(PID.TID 0000.0001) // =======================================================
(PID.TID 0000.0001) %MON time_tsnumber                =                  7560
(PID.TID 0000.0001) %MON time_secondsf                =   9.0720000000000E+06
(PID.TID 0000.0001) %MON dynstat_eta_max              =   4.2223180509067E-02
(PID.TID 0000.0001) %MON dynstat_eta_min              =  -2.0267438894642E-02
(PID.TID 0000.0001) %MON dynstat_eta_mean             =   2.8494968188656E-07
(PID.TID 0000.0001) %MON dynstat_eta_sd               =   1.4425242489181E-02
(PID.TID 0000.0001) %MON dynstat_eta_del2             =   1.8081732292288E-05
(PID.TID 0000.0001) %MON dynstat_uvel_max             =   2.9690513492009E-02
(PID.TID 0000.0001) %MON dynstat_uvel_min             =  -1.5597663125189E-02
(PID.TID 0000.0001) %MON dynstat_uvel_mean            =   9.3397900087419E-08
(PID.TID 0000.0001) %MON dynstat_uvel_sd              =   6.1880406291525E-03
(PID.TID 0000.0001) %MON dynstat_uvel_del2            =   7.8291496355402E-06
(PID.TID 0000.0001) %MON dynstat_vvel_max             =   7.8704587474466E-02
(PID.TID 0000.0001) %MON dynstat_vvel_min             =  -3.6250669669635E-02
(PID.TID 0000.0001) %MON dynstat_vvel_mean            =  -9.1809139781119E-09
(PID.TID 0000.0001) %MON dynstat_vvel_sd              =   1.4623121677787E-02
(PID.TID 0000.0001) %MON dynstat_vvel_del2            =   7.3059186891980E-05
(PID.TID 0000.0001) %MON dynstat_wvel_max             =   1.9358746962389E-08
(PID.TID 0000.0001) %MON dynstat_wvel_min             =  -9.1462301817955E-09
(PID.TID 0000.0001) %MON dynstat_wvel_mean            =   1.5318917374114E-21
(PID.TID 0000.0001) %MON dynstat_wvel_sd              =   6.6246684133294E-09
(PID.TID 0000.0001) %MON dynstat_wvel_del2            =   2.7401517217938E-12
(PID.TID 0000.0001) %MON dynstat_theta_max            =   2.0000000000000E+01
(PID.TID 0000.0001) %MON dynstat_theta_min            =   2.0000000000000E+01
(PID.TID 0000.0001) %MON dynstat_theta_mean           =   2.0000000000000E+01
(PID.TID 0000.0001) %MON dynstat_theta_sd             =   0.0000000000000E+00
(PID.TID 0000.0001) %MON dynstat_theta_del2           =   0.0000000000000E+00
(PID.TID 0000.0001) %MON dynstat_salt_max             =   3.0000000000000E+01
(PID.TID 0000.0001) %MON dynstat_salt_min             =   3.0000000000000E+01
(PID.TID 0000.0001) %MON dynstat_salt_mean            =   3.0000000000000E+01
(PID.TID 0000.0001) %MON dynstat_salt_sd              =   0.0000000000000E+00
(PID.TID 0000.0001) %MON dynstat_salt_del2            =   0.0000000000000E+00
(PID.TID 0000.0001) %MON trAdv_CFL_u_max              =   1.7814531301001E-03
(PID.TID 0000.0001) %MON trAdv_CFL_v_max              =   4.7225946327757E-03
(PID.TID 0000.0001) %MON trAdv_CFL_w_max              =   4.6466922275489E-09
(PID.TID 0000.0001) %MON advcfl_uvel_max              =   1.7814308095205E-03
(PID.TID 0000.0001) %MON advcfl_vvel_max              =   4.7222752484679E-03
(PID.TID 0000.0001) %MON advcfl_wvel_max              =   9.2921985419467E-09
(PID.TID 0000.0001) %MON advcfl_W_hf_max              =   0.0000000000000E+00
(PID.TID 0000.0001) %MON pe_b_mean                    =   2.0413395615476E-07
(PID.TID 0000.0001) %MON ke_max                       =   3.0949733037134E-03
(PID.TID 0000.0001) %MON ke_mean                      =   1.2396270443310E-04
(PID.TID 0000.0001) %MON ke_vol                       =   7.2000000000000E+15
(PID.TID 0000.0001) %MON vort_r_min                   =  -1.5303347791986E-06
(PID.TID 0000.0001) %MON vort_r_max                   =   2.1299351068618E-06
(PID.TID 0000.0001) %MON vort_a_mean                  =   1.0600000000000E-04
(PID.TID 0000.0001) %MON vort_a_sd                    =   3.5362216897337E-06
(PID.TID 0000.0001) %MON vort_p_mean                  =   1.1130000000000E-04
(PID.TID 0000.0001) %MON vort_p_sd                    =   4.1151716095621E-05
(PID.TID 0000.0001) %MON surfExpan_theta_mean         =   3.0646181888490E-20
(PID.TID 0000.0001) %MON surfExpan_salt_mean          =   4.5976851955250E-20
(PID.TID 0000.0001) // =======================================================
(PID.TID 0000.0001) // End MONITOR dynamic field statistics
(PID.TID 0000.0001) // =======================================================
 cg2d: Sum(rhs),rhsMax =  -4.32157511882773E-04  1.31873066668463E-01
 cg2d: Sum(rhs),rhsMax =  -4.31953679290100E-04  1.31865847208721E-01
 cg2d: Sum(rhs),rhsMax =  -4.31750058864949E-04  1.31858638335721E-01
 cg2d: Sum(rhs),rhsMax =  -4.31546651839009E-04  1.31851440059899E-01
 cg2d: Sum(rhs),rhsMax =  -4.31343459278875E-04  1.31844252391662E-01
 cg2d: Sum(rhs),rhsMax =  -4.31140482432357E-04  1.31837075341388E-01
 cg2d: Sum(rhs),rhsMax =  -4.30937722428137E-04  1.31829908919431E-01
 cg2d: Sum(rhs),rhsMax =  -4.30735180501064E-04  1.31822753136113E-01
 cg2d: Sum(rhs),rhsMax =  -4.30532857758048E-04  1.31815608001734E-01
 cg2d: Sum(rhs),rhsMax =  -4.30330755440997E-04  1.31808473526560E-01
 cg2d: Sum(rhs),rhsMax =  -4.30128874732483E-04  1.31801349720834E-01
 cg2d: Sum(rhs),rhsMax =  -4.29927216877508E-04  1.31794236594771E-01
 cg2d: Sum(rhs),rhsMax =  -4.29725783097195E-04  1.31787134158557E-01
 cg2d: Sum(rhs),rhsMax =  -4.29524574609696E-04  1.31780042422351E-01
 cg2d: Sum(rhs),rhsMax =  -4.29323592708760E-04  1.31772961396284E-01
 cg2d: Sum(rhs),rhsMax =  -4.29122838685471E-04  1.31765891090459E-01
 cg2d: Sum(rhs),rhsMax =  -4.28922313699189E-04  1.31758831514952E-01
 cg2d: Sum(rhs),rhsMax =  -4.28722019075759E-04  1.31751782679812E-01
 cg2d: Sum(rhs),rhsMax =  -4.28521956044403E-04  1.31744744595058E-01
 cg2d: Sum(rhs),rhsMax =  -4.28322125941493E-04  1.31737717270685E-01
 cg2d: Sum(rhs),rhsMax =  -4.28122530109475E-04  1.31730700716654E-01
 cg2d: Sum(rhs),rhsMax =  -4.27923169940390E-04  1.31723694942905E-01
 cg2d: Sum(rhs),rhsMax =  -4.27724046530822E-04  1.31716699959347E-01
 cg2d: Sum(rhs),rhsMax =  -4.27525161353919E-04  1.31709715775859E-01
 cg2d: Sum(rhs),rhsMax =  -4.27326515737805E-04  1.31702742402297E-01
 cg2d: Sum(rhs),rhsMax =  -4.27128111157757E-04  1.31695779848485E-01
 cg2d: Sum(rhs),rhsMax =  -4.26929948729269E-04  1.31688828124221E-01
 cg2d: Sum(rhs),rhsMax =  -4.26732030004379E-04  1.31681887239274E-01
 cg2d: Sum(rhs),rhsMax =  -4.26534356278708E-04  1.31674957203386E-01
 cg2d: Sum(rhs),rhsMax =  -4.26336928965497E-04  1.31668038026273E-01
 cg2d: Sum(rhs),rhsMax =  -4.26139749584674E-04  1.31661129717616E-01
 cg2d: Sum(rhs),rhsMax =  -4.25942819377073E-04  1.31654232287076E-01
 cg2d: Sum(rhs),rhsMax =  -4.25746139868836E-04  1.31647345744282E-01
 cg2d: Sum(rhs),rhsMax =  -4.25549712449839E-04  1.31640470098835E-01
 cg2d: Sum(rhs),rhsMax =  -4.25353538572168E-04  1.31633605360309E-01
 cg2d: Sum(rhs),rhsMax =  -4.25157619693132E-04  1.31626751538247E-01
 cg2d: Sum(rhs),rhsMax =  -4.24961957175020E-04  1.31619908642171E-01
 cg2d: Sum(rhs),rhsMax =  -4.24766552687545E-04  1.31613076681565E-01
 cg2d: Sum(rhs),rhsMax =  -4.24571407612256E-04  1.31606255665893E-01
 cg2d: Sum(rhs),rhsMax =  -4.24376523395044E-04  1.31599445604588E-01
 cg2d: Sum(rhs),rhsMax =  -4.24181901554506E-04  1.31592646507052E-01
 cg2d: Sum(rhs),rhsMax =  -4.23987543619535E-04  1.31585858382662E-01
 cg2d: Sum(rhs),rhsMax =  -4.23793451113358E-04  1.31579081240768E-01
 cg2d: Sum(rhs),rhsMax =  -4.23599625554588E-04  1.31572315090687E-01
 cg2d: Sum(rhs),rhsMax =  -4.23406068496515E-04  1.31565559941712E-01
 cg2d: Sum(rhs),rhsMax =  -4.23212781330713E-04  1.31558815803105E-01
 cg2d: Sum(rhs),rhsMax =  -4.23019765903974E-04  1.31552082684103E-01
 cg2d: Sum(rhs),rhsMax =  -4.22827023519872E-04  1.31545360593910E-01
 cg2d: Sum(rhs),rhsMax =  -4.22634555831426E-04  1.31538649541706E-01
 cg2d: Sum(rhs),rhsMax =  -4.22442364399637E-04  1.31531949536639E-01
 cg2d: Sum(rhs),rhsMax =  -4.22250450872072E-04  1.31525260587831E-01
 cg2d: Sum(rhs),rhsMax =  -4.22058816815923E-04  1.31518582704375E-01
 cg2d: Sum(rhs),rhsMax =  -4.21867463815062E-04  1.31511915895336E-01
 cg2d: Sum(rhs),rhsMax =  -4.21676393527270E-04  1.31505260169748E-01
 cg2d: Sum(rhs),rhsMax =  -4.21485607588760E-04  1.31498615536621E-01
 cg2d: Sum(rhs),rhsMax =  -4.21295107535305E-04  1.31491982004931E-01
 cg2d: Sum(rhs),rhsMax =  -4.21104895075898E-04  1.31485359583632E-01
 cg2d: Sum(rhs),rhsMax =  -4.20914971831625E-04  1.31478748281643E-01
 cg2d: Sum(rhs),rhsMax =  -4.20725339488885E-04  1.31472148107858E-01
 cg2d: Sum(rhs),rhsMax =  -4.20535999734467E-04  1.31465559071143E-01
 cg2d: Sum(rhs),rhsMax =  -4.20346954050946E-04  1.31458981180332E-01
 cg2d: Sum(rhs),rhsMax =  -4.20158204305007E-04  1.31452414444234E-01
 cg2d: Sum(rhs),rhsMax =  -4.19969752110782E-04  1.31445858871628E-01
 cg2d: Sum(rhs),rhsMax =  -4.19781599187678E-04  1.31439314471264E-01
 cg2d: Sum(rhs),rhsMax =  -4.19593747205494E-04  1.31432781251863E-01
 cg2d: Sum(rhs),rhsMax =  -4.19406197854814E-04  1.31426259222118E-01
 cg2d: Sum(rhs),rhsMax =  -4.19218952896917E-04  1.31419748390695E-01
 cg2d: Sum(rhs),rhsMax =  -4.19032013958294E-04  1.31413248766226E-01
 cg2d: Sum(rhs),rhsMax =  -4.18845382842732E-04  1.31406760357321E-01
 cg2d: Sum(rhs),rhsMax =  -4.18659061235170E-04  1.31400283172556E-01
 cg2d: Sum(rhs),rhsMax =  -4.18473050817762E-04  1.31393817220480E-01
 cg2d: Sum(rhs),rhsMax =  -4.18287353388064E-04  1.31387362509616E-01
(PID.TID 0000.0001)      cg2d_init_res =   1.25951394767577E-03
(PID.TID 0000.0001)      cg2d_iters(min,last) =      -1      79
(PID.TID 0000.0001)      cg2d_last_res =   9.79944588160334E-08
(PID.TID 0000.0001) // =======================================================
(PID.TID 0000.0001) // Begin MONITOR dynamic field statistics
(PID.TID 0000.0001) // =======================================================
(PID.TID 0000.0001) %MON time_tsnumber                =                  7632
(PID.TID 0000.0001) %MON time_secondsf                =   9.1584000000000E+06
(PID.TID 0000.0001) %MON dynstat_eta_max              =   4.1498776366016E-02
(PID.TID 0000.0001) %MON dynstat_eta_min              =  -2.0694454073505E-02
(PID.TID 0000.0001) %MON dynstat_eta_mean             =   2.7465310580953E-07
(PID.TID 0000.0001) %MON dynstat_eta_sd               =   1.4501665995193E-02
(PID.TID 0000.0001) %MON dynstat_eta_del2             =   1.8035377786047E-05
(PID.TID 0000.0001) %MON dynstat_uvel_max             =   2.9668787671820E-02
(PID.TID 0000.0001) %MON dynstat_uvel_min             =  -1.5611578877466E-02
(PID.TID 0000.0001) %MON dynstat_uvel_mean            =   6.3284548938539E-08
(PID.TID 0000.0001) %MON dynstat_uvel_sd              =   6.2713926852459E-03
(PID.TID 0000.0001) %MON dynstat_uvel_del2            =   7.8738576715059E-06
(PID.TID 0000.0001) %MON dynstat_vvel_max             =   7.8338546931033E-02
(PID.TID 0000.0001) %MON dynstat_vvel_min             =  -3.6041704656436E-02
(PID.TID 0000.0001) %MON dynstat_vvel_mean            =  -9.5946806278105E-09
(PID.TID 0000.0001) %MON dynstat_vvel_sd              =   1.4589758093885E-02
(PID.TID 0000.0001) %MON dynstat_vvel_del2            =   7.2883444156239E-05
(PID.TID 0000.0001) %MON dynstat_wvel_max             =   1.9300403074885E-08
(PID.TID 0000.0001) %MON dynstat_wvel_min             =  -8.7092997564469E-09
(PID.TID 0000.0001) %MON dynstat_wvel_mean            =   2.0983065951441E-21
(PID.TID 0000.0001) %MON dynstat_wvel_sd              =   6.6051382536609E-09
(PID.TID 0000.0001) %MON dynstat_wvel_del2            =   2.7190494488775E-12
(PID.TID 0000.0001) %MON dynstat_theta_max            =   2.0000000000000E+01
(PID.TID 0000.0001) %MON dynstat_theta_min            =   2.0000000000000E+01
(PID.TID 0000.0001) %MON dynstat_theta_mean           =   2.0000000000000E+01
(PID.TID 0000.0001) %MON dynstat_theta_sd             =   0.0000000000000E+00
(PID.TID 0000.0001) %MON dynstat_theta_del2           =   0.0000000000000E+00
(PID.TID 0000.0001) %MON dynstat_salt_max             =   3.0000000000000E+01
(PID.TID 0000.0001) %MON dynstat_salt_min             =   3.0000000000000E+01
(PID.TID 0000.0001) %MON dynstat_salt_mean            =   3.0000000000000E+01
(PID.TID 0000.0001) %MON dynstat_salt_sd              =   0.0000000000000E+00
(PID.TID 0000.0001) %MON dynstat_salt_del2            =   0.0000000000000E+00
(PID.TID 0000.0001) %MON trAdv_CFL_u_max              =   1.7801411373755E-03
(PID.TID 0000.0001) %MON trAdv_CFL_v_max              =   4.7006035216023E-03
(PID.TID 0000.0001) %MON trAdv_CFL_w_max              =   4.6326264210278E-09
(PID.TID 0000.0001) %MON advcfl_uvel_max              =   1.7801272603092E-03
(PID.TID 0000.0001) %MON advcfl_vvel_max              =   4.7003128158620E-03
(PID.TID 0000.0001) %MON advcfl_wvel_max              =   9.2641934759449E-09
(PID.TID 0000.0001) %MON advcfl_W_hf_max              =   0.0000000000000E+00
(PID.TID 0000.0001) %MON pe_b_mean                    =   2.0630264869406E-07
(PID.TID 0000.0001) %MON ke_max                       =   3.0670483098399E-03
(PID.TID 0000.0001) %MON ke_mean                      =   1.2399410866525E-04
(PID.TID 0000.0001) %MON ke_vol                       =   7.2000000000000E+15
(PID.TID 0000.0001) %MON vort_r_min                   =  -1.5243809606225E-06
(PID.TID 0000.0001) %MON vort_r_max                   =   2.1222733118960E-06
(PID.TID 0000.0001) %MON vort_a_mean                  =   1.0600000000000E-04
(PID.TID 0000.0001) %MON vort_a_sd                    =   3.5361531675378E-06
(PID.TID 0000.0001) %MON vort_p_mean                  =   1.1130000000000E-04
(PID.TID 0000.0001) %MON vort_p_sd                    =   4.1151836762684E-05
(PID.TID 0000.0001) %MON surfExpan_theta_mean         =   4.1951074712819E-20
(PID.TID 0000.0001) %MON surfExpan_salt_mean          =   6.2929296341786E-20
(PID.TID 0000.0001) // =======================================================
(PID.TID 0000.0001) // End MONITOR dynamic field statistics
(PID.TID 0000.0001) // =======================================================
 cg2d: Sum(rhs),rhsMax =  -4.18101970680150E-04  1.31380919048452E-01
 cg2d: Sum(rhs),rhsMax =  -4.17916904347571E-04  1.31374486845454E-01
 cg2d: Sum(rhs),rhsMax =  -4.17732156279091E-04  1.31368065909053E-01
 cg2d: Sum(rhs),rhsMax =  -4.17547728169745E-04  1.31361656247655E-01
 cg2d: Sum(rhs),rhsMax =  -4.17363621687628E-04  1.31355257869637E-01
 cg2d: Sum(rhs),rhsMax =  -4.17179838719009E-04  1.31348870783345E-01
 cg2d: Sum(rhs),rhsMax =  -4.16996380831742E-04  1.31342494997098E-01
 cg2d: Sum(rhs),rhsMax =  -4.16813249923501E-04  1.31336130519184E-01
 cg2d: Sum(rhs),rhsMax =  -4.16630447913423E-04  1.31329777357867E-01
 cg2d: Sum(rhs),rhsMax =  -4.16447976340083E-04  1.31323435521375E-01
 cg2d: Sum(rhs),rhsMax =  -4.16265836969901E-04  1.31317105017910E-01
 cg2d: Sum(rhs),rhsMax =  -4.16084031621732E-04  1.31310785855647E-01
 cg2d: Sum(rhs),rhsMax =  -4.15902562059743E-04  1.31304478042731E-01
 cg2d: Sum(rhs),rhsMax =  -4.15721429994380E-04  1.31298181587276E-01
 cg2d: Sum(rhs),rhsMax =  -4.15540637288032E-04  1.31291896497368E-01
 cg2d: Sum(rhs),rhsMax =  -4.15360185509016E-04  1.31285622781066E-01
 cg2d: Sum(rhs),rhsMax =  -4.15180076597935E-04  1.31279360446396E-01
 cg2d: Sum(rhs),rhsMax =  -4.15000312239715E-04  1.31273109501359E-01
 cg2d: Sum(rhs),rhsMax =  -4.14820894226982E-04  1.31266869953924E-01
 cg2d: Sum(rhs),rhsMax =  -4.14641824326983E-04  1.31260641812031E-01
 cg2d: Sum(rhs),rhsMax =  -4.14463104242574E-04  1.31254425083593E-01
 cg2d: Sum(rhs),rhsMax =  -4.14284735632894E-04  1.31248219776491E-01
 cg2d: Sum(rhs),rhsMax =  -4.14106720272859E-04  1.31242025898578E-01
 cg2d: Sum(rhs),rhsMax =  -4.13929060037638E-04  1.31235843457680E-01
 cg2d: Sum(rhs),rhsMax =  -4.13751756498551E-04  1.31229672461591E-01
 cg2d: Sum(rhs),rhsMax =  -4.13574811464822E-04  1.31223512918075E-01
 cg2d: Sum(rhs),rhsMax =  -4.13398226553417E-04  1.31217364834871E-01
 cg2d: Sum(rhs),rhsMax =  -4.13222003549546E-04  1.31211228219683E-01
 cg2d: Sum(rhs),rhsMax =  -4.13046144096517E-04  1.31205103080191E-01
 cg2d: Sum(rhs),rhsMax =  -4.12870649844667E-04  1.31198989424042E-01
 cg2d: Sum(rhs),rhsMax =  -4.12743879208216E-04  1.31192887143968E-01
 cg2d: Sum(rhs),rhsMax =  -4.12617561791992E-04  1.31186796468024E-01
 cg2d: Sum(rhs),rhsMax =  -4.12491705199663E-04  1.31180717307202E-01
 cg2d: Sum(rhs),rhsMax =  -4.12366296238327E-04  1.31174649663599E-01
 cg2d: Sum(rhs),rhsMax =  -4.12241330578134E-04  1.31168593540745E-01
 cg2d: Sum(rhs),rhsMax =  -4.12116809394795E-04  1.31162548944590E-01
 cg2d: Sum(rhs),rhsMax =  -4.11992736990386E-04  1.31156515882800E-01
 cg2d: Sum(rhs),rhsMax =  -4.11869117935832E-04  1.31150494363617E-01
 cg2d: Sum(rhs),rhsMax =  -4.11745955463911E-04  1.31144484395224E-01
 cg2d: Sum(rhs),rhsMax =  -4.11623251469590E-04  1.31138485985423E-01
 cg2d: Sum(rhs),rhsMax =  -4.11501006931555E-04  1.31132499141607E-01
 cg2d: Sum(rhs),rhsMax =  -4.11379222896273E-04  1.31126523870913E-01
 cg2d: Sum(rhs),rhsMax =  -4.11257900512534E-04  1.31120560180418E-01
 cg2d: Sum(rhs),rhsMax =  -4.11137041139055E-04  1.31114608077239E-01
 cg2d: Sum(rhs),rhsMax =  -4.11016646459725E-04  1.31108667568550E-01
 cg2d: Sum(rhs),rhsMax =  -4.10896718202924E-04  1.31102738661540E-01
 cg2d: Sum(rhs),rhsMax =  -4.10777257779621E-04  1.31096821363374E-01
 cg2d: Sum(rhs),rhsMax =  -4.10658266575104E-04  1.31090915681185E-01
 cg2d: Sum(rhs),rhsMax =  -4.10539745966034E-04  1.31085021622064E-01
 cg2d: Sum(rhs),rhsMax =  -4.10421697144061E-04  1.31079139193072E-01
 cg2d: Sum(rhs),rhsMax =  -4.10304121219116E-04  1.31073268401244E-01
 cg2d: Sum(rhs),rhsMax =  -4.10187019379430E-04  1.31067409253587E-01
 cg2d: Sum(rhs),rhsMax =  -4.10070392715984E-04  1.31061561757080E-01
 cg2d: Sum(rhs),rhsMax =  -4.09954242409774E-04  1.31055725918669E-01
 cg2d: Sum(rhs),rhsMax =  -4.09838569307700E-04  1.31049901745262E-01
 cg2d: Sum(rhs),rhsMax =  -4.09723374407318E-04  1.31044089243737E-01
 cg2d: Sum(rhs),rhsMax =  -4.09608658530493E-04  1.31038288420939E-01
 cg2d: Sum(rhs),rhsMax =  -4.09494422580949E-04  1.31032499283685E-01
 cg2d: Sum(rhs),rhsMax =  -4.09380667200283E-04  1.31026721838767E-01
 cg2d: Sum(rhs),rhsMax =  -4.09267393015224E-04  1.31020956092945E-01
 cg2d: Sum(rhs),rhsMax =  -4.09154600825358E-04  1.31015202052954E-01
 cg2d: Sum(rhs),rhsMax =  -4.09042290926805E-04  1.31009459725501E-01
 cg2d: Sum(rhs),rhsMax =  -4.08930463984323E-04  1.31003729117260E-01
 cg2d: Sum(rhs),rhsMax =  -4.08819120294807E-04  1.30998010234877E-01
 cg2d: Sum(rhs),rhsMax =  -4.08708260095554E-04  1.30992303084964E-01
 cg2d: Sum(rhs),rhsMax =  -4.08597883647546E-04  1.30986607674106E-01
 cg2d: Sum(rhs),rhsMax =  -4.08487991166896E-04  1.30980924008855E-01
 cg2d: Sum(rhs),rhsMax =  -4.08378582605747E-04  1.30975252095734E-01
 cg2d: Sum(rhs),rhsMax =  -4.08269658046169E-04  1.30969591941237E-01
 cg2d: Sum(rhs),rhsMax =  -4.08161217394016E-04  1.30963943551829E-01
 cg2d: Sum(rhs),rhsMax =  -4.08053260350710E-04  1.30958306933943E-01
 cg2d: Sum(rhs),rhsMax =  -4.07945786658125E-04  1.30952682093987E-01
(PID.TID 0000.0001)      cg2d_init_res =   1.26197582377260E-03
(PID.TID 0000.0001)      cg2d_iters(min,last) =      -1      80
(PID.TID 0000.0001)      cg2d_last_res =   7.75087957618965E-08
(PID.TID 0000.0001) // =======================================================
(PID.TID 0000.0001) // Begin MONITOR dynamic field statistics
(PID.TID 0000.0001) // =======================================================
(PID.TID 0000.0001) %MON time_tsnumber                =                  7704
(PID.TID 0000.0001) %MON time_secondsf                =   9.2448000000000E+06
(PID.TID 0000.0001) %MON dynstat_eta_max              =   4.0799189303678E-02
(PID.TID 0000.0001) %MON dynstat_eta_min              =  -2.1132463319181E-02
(PID.TID 0000.0001) %MON dynstat_eta_mean             =   2.6702647486202E-07
(PID.TID 0000.0001) %MON dynstat_eta_sd               =   1.4621651833609E-02
(PID.TID 0000.0001) %MON dynstat_eta_del2             =   1.7990389739109E-05
(PID.TID 0000.0001) %MON dynstat_uvel_max             =   2.9657641442800E-02
(PID.TID 0000.0001) %MON dynstat_uvel_min             =  -1.5632965044690E-02
(PID.TID 0000.0001) %MON dynstat_uvel_mean            =   3.2250268873338E-08
(PID.TID 0000.0001) %MON dynstat_uvel_sd              =   6.3633124147969E-03
(PID.TID 0000.0001) %MON dynstat_uvel_del2            =   7.9260008912416E-06
(PID.TID 0000.0001) %MON dynstat_vvel_max             =   7.8008218466580E-02
(PID.TID 0000.0001) %MON dynstat_vvel_min             =  -3.5800258495577E-02
(PID.TID 0000.0001) %MON dynstat_vvel_mean            =  -9.8740513498360E-09
(PID.TID 0000.0001) %MON dynstat_vvel_sd              =   1.4562898759377E-02
(PID.TID 0000.0001) %MON dynstat_vvel_del2            =   7.2725041651313E-05
(PID.TID 0000.0001) %MON dynstat_wvel_max             =   1.9135955946113E-08
(PID.TID 0000.0001) %MON dynstat_wvel_min             =  -8.2467219949467E-09
(PID.TID 0000.0001) %MON dynstat_wvel_mean            =   1.4503183996971E-21
(PID.TID 0000.0001) %MON dynstat_wvel_sd              =   6.5877642102470E-09
(PID.TID 0000.0001) %MON dynstat_wvel_del2            =   2.6978278006056E-12
(PID.TID 0000.0001) %MON dynstat_theta_max            =   2.0000000000000E+01
(PID.TID 0000.0001) %MON dynstat_theta_min            =   2.0000000000000E+01
(PID.TID 0000.0001) %MON dynstat_theta_mean           =   2.0000000000000E+01
(PID.TID 0000.0001) %MON dynstat_theta_sd             =   0.0000000000000E+00
(PID.TID 0000.0001) %MON dynstat_theta_del2           =   0.0000000000000E+00
(PID.TID 0000.0001) %MON dynstat_salt_max             =   3.0000000000000E+01
(PID.TID 0000.0001) %MON dynstat_salt_min             =   3.0000000000000E+01
(PID.TID 0000.0001) %MON dynstat_salt_mean            =   3.0000000000000E+01
(PID.TID 0000.0001) %MON dynstat_salt_sd              =   0.0000000000000E+00
(PID.TID 0000.0001) %MON dynstat_salt_del2            =   0.0000000000000E+00
(PID.TID 0000.0001) %MON trAdv_CFL_u_max              =   1.7794632049760E-03
(PID.TID 0000.0001) %MON trAdv_CFL_v_max              =   4.6807530623273E-03
(PID.TID 0000.0001) %MON trAdv_CFL_w_max              =   4.5930961223552E-09
(PID.TID 0000.0001) %MON advcfl_uvel_max              =   1.7794584865680E-03
(PID.TID 0000.0001) %MON advcfl_vvel_max              =   4.6804931079948E-03
(PID.TID 0000.0001) %MON advcfl_wvel_max              =   9.1852588541340E-09
(PID.TID 0000.0001) %MON advcfl_W_hf_max              =   0.0000000000000E+00
(PID.TID 0000.0001) %MON pe_b_mean                    =   2.0973064106871E-07
(PID.TID 0000.0001) %MON ke_max                       =   3.0418977126812E-03
(PID.TID 0000.0001) %MON ke_mean                      =   1.2418013453961E-04
(PID.TID 0000.0001) %MON ke_vol                       =   7.2000000000000E+15
(PID.TID 0000.0001) %MON vort_r_min                   =  -1.5181834479253E-06
(PID.TID 0000.0001) %MON vort_r_max                   =   2.1157368242331E-06
(PID.TID 0000.0001) %MON vort_a_mean                  =   1.0600000000000E-04
(PID.TID 0000.0001) %MON vort_a_sd                    =   3.5360956928708E-06
(PID.TID 0000.0001) %MON vort_p_mean                  =   1.1130000000000E-04
(PID.TID 0000.0001) %MON vort_p_sd                    =   4.1151958462530E-05
(PID.TID 0000.0001) %MON surfExpan_theta_mean         =   2.9020775905843E-20
(PID.TID 0000.0001) %MON surfExpan_salt_mean          =   4.3519479378220E-20
(PID.TID 0000.0001) // =======================================================
(PID.TID 0000.0001) // End MONITOR dynamic field statistics
(PID.TID 0000.0001) // =======================================================
 cg2d: Sum(rhs),rhsMax =  -4.07838795981917E-04  1.30947069038333E-01
 cg2d: Sum(rhs),rhsMax =  -4.07732287764446E-04  1.30941467773327E-01
 cg2d: Sum(rhs),rhsMax =  -4.07626261575596E-04  1.30935878305284E-01
 cg2d: Sum(rhs),rhsMax =  -4.07520716725043E-04  1.30930300640489E-01
 cg2d: Sum(rhs),rhsMax =  -4.07415652387041E-04  1.30924734785197E-01
 cg2d: Sum(rhs),rhsMax =  -4.07311067838898E-04  1.30919180745634E-01
 cg2d: Sum(rhs),rhsMax =  -4.07206961981148E-04  1.30913638527993E-01
 cg2d: Sum(rhs),rhsMax =  -4.07103333946090E-04  1.30908108138440E-01
 cg2d: Sum(rhs),rhsMax =  -4.07000182553741E-04  1.30902589583109E-01
 cg2d: Sum(rhs),rhsMax =  -4.06897506445771E-04  1.30897082868107E-01
 cg2d: Sum(rhs),rhsMax =  -4.06795304307422E-04  1.30891587999509E-01
 cg2d: Sum(rhs),rhsMax =  -4.06693574839211E-04  1.30886104983358E-01
 cg2d: Sum(rhs),rhsMax =  -4.06592316389359E-04  1.30880633825670E-01
 cg2d: Sum(rhs),rhsMax =  -4.06491527345517E-04  1.30875174532431E-01
 cg2d: Sum(rhs),rhsMax =  -4.06391205994464E-04  1.30869727109594E-01
 cg2d: Sum(rhs),rhsMax =  -4.06291350341322E-04  1.30864291563085E-01
 cg2d: Sum(rhs),rhsMax =  -4.06191958622686E-04  1.30858867898798E-01
 cg2d: Sum(rhs),rhsMax =  -4.06093028617650E-04  1.30853456122599E-01
 cg2d: Sum(rhs),rhsMax =  -4.05994558337168E-04  1.30848056240321E-01
 cg2d: Sum(rhs),rhsMax =  -4.05896545369894E-04  1.30842668257768E-01
 cg2d: Sum(rhs),rhsMax =  -4.05798987558128E-04  1.30837292180715E-01
 cg2d: Sum(rhs),rhsMax =  -4.05701882397093E-04  1.30831928014907E-01
 cg2d: Sum(rhs),rhsMax =  -4.05605227421145E-04  1.30826575766056E-01
 cg2d: Sum(rhs),rhsMax =  -4.05509019866934E-04  1.30821235439847E-01
 cg2d: Sum(rhs),rhsMax =  -4.05413257203963E-04  1.30815907041932E-01
 cg2d: Sum(rhs),rhsMax =  -4.05317936637835E-04  1.30810590577937E-01
 cg2d: Sum(rhs),rhsMax =  -4.05223055351821E-04  1.30805286053454E-01
 cg2d: Sum(rhs),rhsMax =  -4.05128610424261E-04  1.30799993474045E-01
 cg2d: Sum(rhs),rhsMax =  -4.05034598759235E-04  1.30794712845243E-01
 cg2d: Sum(rhs),rhsMax =  -4.04941017470711E-04  1.30789444172552E-01
 cg2d: Sum(rhs),rhsMax =  -4.04847863375918E-04  1.30784187461443E-01
 cg2d: Sum(rhs),rhsMax =  -4.04755133389437E-04  1.30778942717359E-01
 cg2d: Sum(rhs),rhsMax =  -4.04662824339598E-04  1.30773709945711E-01
 cg2d: Sum(rhs),rhsMax =  -4.04570933043124E-04  1.30768489151882E-01
 cg2d: Sum(rhs),rhsMax =  -4.04479456204109E-04  1.30763280341221E-01
 cg2d: Sum(rhs),rhsMax =  -4.04388390659542E-04  1.30758083519050E-01
 cg2d: Sum(rhs),rhsMax =  -4.04297733144423E-04  1.30752898690661E-01
 cg2d: Sum(rhs),rhsMax =  -4.04207480449454E-04  1.30747725861313E-01
 cg2d: Sum(rhs),rhsMax =  -4.04117629421460E-04  1.30742565036236E-01
 cg2d: Sum(rhs),rhsMax =  -4.04028176871309E-04  1.30737416220631E-01
 cg2d: Sum(rhs),rhsMax =  -4.03939119721299E-04  1.30732279419667E-01
 cg2d: Sum(rhs),rhsMax =  -4.03850455028266E-04  1.30727154638483E-01
 cg2d: Sum(rhs),rhsMax =  -4.03762179768787E-04  1.30722041882189E-01
 cg2d: Sum(rhs),rhsMax =  -4.03674291181405E-04  1.30716941155861E-01
 cg2d: Sum(rhs),rhsMax =  -4.03586786557439E-04  1.30711852464550E-01
 cg2d: Sum(rhs),rhsMax =  -4.03499663480245E-04  1.30706775813272E-01
 cg2d: Sum(rhs),rhsMax =  -4.03412919615189E-04  1.30701711207015E-01
 cg2d: Sum(rhs),rhsMax =  -4.03326552641613E-04  1.30696658650737E-01
 cg2d: Sum(rhs),rhsMax =  -4.03240560859914E-04  1.30691618149363E-01
 cg2d: Sum(rhs),rhsMax =  -4.03154942536241E-04  1.30686589707791E-01
 cg2d: Sum(rhs),rhsMax =  -4.03069696356216E-04  1.30681573330888E-01
 cg2d: Sum(rhs),rhsMax =  -4.02984821352088E-04  1.30676569023486E-01
 cg2d: Sum(rhs),rhsMax =  -4.02900316882618E-04  1.30671576790394E-01
 cg2d: Sum(rhs),rhsMax =  -4.02816182531867E-04  1.30666596636385E-01
 cg2d: Sum(rhs),rhsMax =  -4.02732418556154E-04  1.30661628566204E-01
 cg2d: Sum(rhs),rhsMax =  -4.02649025816609E-04  1.30656672584566E-01
 cg2d: Sum(rhs),rhsMax =  -4.02515861748224E-04  1.30651728797644E-01
 cg2d: Sum(rhs),rhsMax =  -4.02383301484599E-04  1.30646797020238E-01
 cg2d: Sum(rhs),rhsMax =  -4.02251330317922E-04  1.30641877331032E-01
 cg2d: Sum(rhs),rhsMax =  -4.02119987277575E-04  1.30636969744092E-01
 cg2d: Sum(rhs),rhsMax =  -4.01989295262817E-04  1.30632074268257E-01
 cg2d: Sum(rhs),rhsMax =  -4.01859274803618E-04  1.30627190911133E-01
 cg2d: Sum(rhs),rhsMax =  -4.01729945586587E-04  1.30622319677503E-01
 cg2d: Sum(rhs),rhsMax =  -4.01601328904938E-04  1.30617460570868E-01
 cg2d: Sum(rhs),rhsMax =  -4.01473448382663E-04  1.30612613594491E-01
 cg2d: Sum(rhs),rhsMax =  -4.01346330272142E-04  1.30607778751955E-01
 cg2d: Sum(rhs),rhsMax =  -4.01220002873607E-04  1.30602956047291E-01
 cg2d: Sum(rhs),rhsMax =  -4.01094495229633E-04  1.30598145484838E-01
 cg2d: Sum(rhs),rhsMax =  -4.00969837250267E-04  1.30593347069052E-01
 cg2d: Sum(rhs),rhsMax =  -4.00846059242869E-04  1.30588560804375E-01
 cg2d: Sum(rhs),rhsMax =  -4.00723191674327E-04  1.30583786695197E-01
 cg2d: Sum(rhs),rhsMax =  -4.00383480231597E-04  1.30579024733580E-01
(PID.TID 0000.0001)      cg2d_init_res =   1.26464725209226E-03
(PID.TID 0000.0001)      cg2d_iters(min,last) =      -1      75
(PID.TID 0000.0001)      cg2d_last_res =   9.88524310538919E-08
(PID.TID 0000.0001) // =======================================================
(PID.TID 0000.0001) // Begin MONITOR dynamic field statistics
(PID.TID 0000.0001) // =======================================================
(PID.TID 0000.0001) %MON time_tsnumber                =                  7776
(PID.TID 0000.0001) %MON time_secondsf                =   9.3312000000000E+06
(PID.TID 0000.0001) %MON dynstat_eta_max              =   4.0131608587321E-02
(PID.TID 0000.0001) %MON dynstat_eta_min              =  -2.1576038827392E-02
(PID.TID 0000.0001) %MON dynstat_eta_mean             =   2.6118034470769E-07
(PID.TID 0000.0001) %MON dynstat_eta_sd               =   1.4782791737794E-02
(PID.TID 0000.0001) %MON dynstat_eta_del2             =   1.7947171052546E-05
(PID.TID 0000.0001) %MON dynstat_uvel_max             =   2.9657856011395E-02
(PID.TID 0000.0001) %MON dynstat_uvel_min             =  -1.5662093598503E-02
(PID.TID 0000.0001) %MON dynstat_uvel_mean            =   6.8343309170426E-10
(PID.TID 0000.0001) %MON dynstat_uvel_sd              =   6.4624324146805E-03
(PID.TID 0000.0001) %MON dynstat_uvel_del2            =   7.9848363310130E-06
(PID.TID 0000.0001) %MON dynstat_vvel_max             =   7.7715861037489E-02
(PID.TID 0000.0001) %MON dynstat_vvel_min             =  -3.5528310350278E-02
(PID.TID 0000.0001) %MON dynstat_vvel_mean            =  -9.9939632494355E-09
(PID.TID 0000.0001) %MON dynstat_vvel_sd              =   1.4542869288883E-02
(PID.TID 0000.0001) %MON dynstat_vvel_del2            =   7.2586302670980E-05
(PID.TID 0000.0001) %MON dynstat_wvel_max             =   1.8880306801584E-08
(PID.TID 0000.0001) %MON dynstat_wvel_min             =  -7.9706536961021E-09
(PID.TID 0000.0001) %MON dynstat_wvel_mean            =   8.0915545671208E-22
(PID.TID 0000.0001) %MON dynstat_wvel_sd              =   6.5726259367369E-09
(PID.TID 0000.0001) %MON dynstat_wvel_del2            =   2.6751459229159E-12
(PID.TID 0000.0001) %MON dynstat_theta_max            =   2.0000000000000E+01
(PID.TID 0000.0001) %MON dynstat_theta_min            =   2.0000000000000E+01
(PID.TID 0000.0001) %MON dynstat_theta_mean           =   2.0000000000000E+01
(PID.TID 0000.0001) %MON dynstat_theta_sd             =   0.0000000000000E+00
(PID.TID 0000.0001) %MON dynstat_theta_del2           =   0.0000000000000E+00
(PID.TID 0000.0001) %MON dynstat_salt_max             =   3.0000000000000E+01
(PID.TID 0000.0001) %MON dynstat_salt_min             =   3.0000000000000E+01
(PID.TID 0000.0001) %MON dynstat_salt_mean            =   3.0000000000000E+01
(PID.TID 0000.0001) %MON dynstat_salt_sd              =   0.0000000000000E+00
(PID.TID 0000.0001) %MON dynstat_salt_del2            =   0.0000000000000E+00
(PID.TID 0000.0001) %MON trAdv_CFL_u_max              =   1.7794663337054E-03
(PID.TID 0000.0001) %MON trAdv_CFL_v_max              =   4.6631791703890E-03
(PID.TID 0000.0001) %MON trAdv_CFL_w_max              =   4.5324747000122E-09
(PID.TID 0000.0001) %MON advcfl_uvel_max              =   1.7794713606837E-03
(PID.TID 0000.0001) %MON advcfl_vvel_max              =   4.6629516622493E-03
(PID.TID 0000.0001) %MON advcfl_wvel_max              =   9.0625472647604E-09
(PID.TID 0000.0001) %MON advcfl_W_hf_max              =   0.0000000000000E+00
(PID.TID 0000.0001) %MON pe_b_mean                    =   2.1437884393021E-07
(PID.TID 0000.0001) %MON ke_max                       =   3.0196614213336E-03
(PID.TID 0000.0001) %MON ke_mean                      =   1.2451855593507E-04
(PID.TID 0000.0001) %MON ke_vol                       =   7.2000000000000E+15
(PID.TID 0000.0001) %MON vort_r_min                   =  -1.5117863001278E-06
(PID.TID 0000.0001) %MON vort_r_max                   =   2.1103597985324E-06
(PID.TID 0000.0001) %MON vort_a_mean                  =   1.0600000000000E-04
(PID.TID 0000.0001) %MON vort_a_sd                    =   3.5360499887157E-06
(PID.TID 0000.0001) %MON vort_p_mean                  =   1.1130000000000E-04
(PID.TID 0000.0001) %MON vort_p_sd                    =   4.1152079519769E-05
(PID.TID 0000.0001) %MON surfExpan_theta_mean         =   1.6211190414752E-20
(PID.TID 0000.0001) %MON surfExpan_salt_mean          =   2.4306838023828E-20
(PID.TID 0000.0001) // =======================================================
(PID.TID 0000.0001) // End MONITOR dynamic field statistics
(PID.TID 0000.0001) // =======================================================
 cg2d: Sum(rhs),rhsMax =  -4.00048699797111E-04  1.30574274994513E-01
 cg2d: Sum(rhs),rhsMax =  -3.99719081918849E-04  1.30569537384091E-01
 cg2d: Sum(rhs),rhsMax =  -3.99394796174021E-04  1.30564811919453E-01
 cg2d: Sum(rhs),rhsMax =  -3.99075916983810E-04  1.30560098626273E-01
 cg2d: Sum(rhs),rhsMax =  -3.98762445617435E-04  1.30555397522040E-01
 cg2d: Sum(rhs),rhsMax =  -3.98454349230406E-04  1.30550708614690E-01
 cg2d: Sum(rhs),rhsMax =  -3.98151586492626E-04  1.30546031905491E-01
 cg2d: Sum(rhs),rhsMax =  -3.97854109551276E-04  1.30541367393561E-01
 cg2d: Sum(rhs),rhsMax =  -3.97519052792436E-04  1.30536715060412E-01
 cg2d: Sum(rhs),rhsMax =  -3.97190137942793E-04  1.30532074947683E-01
 cg2d: Sum(rhs),rhsMax =  -3.96867191993931E-04  1.30527447034118E-01
 cg2d: Sum(rhs),rhsMax =  -3.96549921337066E-04  1.30522831326250E-01
 cg2d: Sum(rhs),rhsMax =  -3.96237960384848E-04  1.30518227827392E-01
 cg2d: Sum(rhs),rhsMax =  -3.95930876975043E-04  1.30513636544126E-01
 cg2d: Sum(rhs),rhsMax =  -3.95628186354751E-04  1.30509057482194E-01
 cg2d: Sum(rhs),rhsMax =  -3.95329360690833E-04  1.30504490645804E-01
 cg2d: Sum(rhs),rhsMax =  -3.95033833068526E-04  1.30499936038323E-01
 cg2d: Sum(rhs),rhsMax =  -3.94740998395293E-04  1.30495393662871E-01
 cg2d: Sum(rhs),rhsMax =  -3.94450215039445E-04  1.30490863522561E-01
 cg2d: Sum(rhs),rhsMax =  -3.94160809563370E-04  1.30486345620564E-01
 cg2d: Sum(rhs),rhsMax =  -3.93872085672626E-04  1.30481839960129E-01
 cg2d: Sum(rhs),rhsMax =  -3.93583335573093E-04  1.30477346544622E-01
 cg2d: Sum(rhs),rhsMax =  -3.93293853558302E-04  1.30472865377538E-01
 cg2d: Sum(rhs),rhsMax =  -3.93002949616859E-04  1.30468396462479E-01
 cg2d: Sum(rhs),rhsMax =  -3.92709960979580E-04  1.30463939803099E-01
 cg2d: Sum(rhs),rhsMax =  -3.92414262702223E-04  1.30459495403024E-01
 cg2d: Sum(rhs),rhsMax =  -3.92115275832229E-04  1.30455063265794E-01
 cg2d: Sum(rhs),rhsMax =  -3.91812473153848E-04  1.30450643394832E-01
 cg2d: Sum(rhs),rhsMax =  -3.91505383856239E-04  1.30446235793454E-01
 cg2d: Sum(rhs),rhsMax =  -3.91193596648839E-04  1.30441840464897E-01
 cg2d: Sum(rhs),rhsMax =  -3.90876760846139E-04  1.30437457412346E-01
 cg2d: Sum(rhs),rhsMax =  -3.90554587109277E-04  1.30433086638970E-01
 cg2d: Sum(rhs),rhsMax =  -3.90269409878480E-04  1.30428728158152E-01
 cg2d: Sum(rhs),rhsMax =  -3.89979568559457E-04  1.30424381948146E-01
 cg2d: Sum(rhs),rhsMax =  -3.89684952978396E-04  1.30420048026380E-01
 cg2d: Sum(rhs),rhsMax =  -3.89385532145801E-04  1.30415726398379E-01
 cg2d: Sum(rhs),rhsMax =  -3.89081307658213E-04  1.30411417066892E-01
 cg2d: Sum(rhs),rhsMax =  -3.88772316333372E-04  1.30407120033744E-01
 cg2d: Sum(rhs),rhsMax =  -3.88458621328381E-04  1.30402835301073E-01
 cg2d: Sum(rhs),rhsMax =  -3.88140306998636E-04  1.30398562871771E-01
 cg2d: Sum(rhs),rhsMax =  -3.87817474701486E-04  1.30394302748935E-01
 cg2d: Sum(rhs),rhsMax =  -3.87490241078422E-04  1.30390054935560E-01
 cg2d: Sum(rhs),rhsMax =  -3.87255327024034E-04  1.30385819416685E-01
 cg2d: Sum(rhs),rhsMax =  -3.87128346460095E-04  1.30381596216333E-01
 cg2d: Sum(rhs),rhsMax =  -3.87000291409549E-04  1.30377385305338E-01
 cg2d: Sum(rhs),rhsMax =  -3.86871182548230E-04  1.30373186739174E-01
 cg2d: Sum(rhs),rhsMax =  -3.86741032805772E-04  1.30369000513054E-01
 cg2d: Sum(rhs),rhsMax =  -3.86609866286156E-04  1.30364826616213E-01
 cg2d: Sum(rhs),rhsMax =  -3.86477716964729E-04  1.30360665046006E-01
 cg2d: Sum(rhs),rhsMax =  -3.86344621512956E-04  1.30356515805647E-01
 cg2d: Sum(rhs),rhsMax =  -3.86210613609221E-04  1.30352378899445E-01
 cg2d: Sum(rhs),rhsMax =  -3.86075721678645E-04  1.30348254330603E-01
 cg2d: Sum(rhs),rhsMax =  -3.85939969389818E-04  1.30344142101190E-01
 cg2d: Sum(rhs),rhsMax =  -3.85803378657995E-04  1.30340042212968E-01
 cg2d: Sum(rhs),rhsMax =  -3.85665970911435E-04  1.30335954668125E-01
 cg2d: Sum(rhs),rhsMax =  -3.85527768169982E-04  1.30331879469511E-01
 cg2d: Sum(rhs),rhsMax =  -3.85388792439660E-04  1.30327816620398E-01
 cg2d: Sum(rhs),rhsMax =  -3.85249065235967E-04  1.30323766124061E-01
 cg2d: Sum(rhs),rhsMax =  -3.85108606812385E-04  1.30319727983433E-01
 cg2d: Sum(rhs),rhsMax =  -3.84967435808255E-04  1.30315702200978E-01
 cg2d: Sum(rhs),rhsMax =  -3.84825569854197E-04  1.30311688778777E-01
 cg2d: Sum(rhs),rhsMax =  -3.84683025049408E-04  1.30307687718717E-01
 cg2d: Sum(rhs),rhsMax =  -3.84539817066651E-04  1.30303699022684E-01
 cg2d: Sum(rhs),rhsMax =  -3.84395960611426E-04  1.30299722692687E-01
 cg2d: Sum(rhs),rhsMax =  -3.84251469835411E-04  1.30295758730888E-01
 cg2d: Sum(rhs),rhsMax =  -3.84106358297693E-04  1.30291807139567E-01
 cg2d: Sum(rhs),rhsMax =  -3.83960638926598E-04  1.30287867921048E-01
 cg2d: Sum(rhs),rhsMax =  -3.83814323898416E-04  1.30283941077629E-01
 cg2d: Sum(rhs),rhsMax =  -3.83667424916579E-04  1.30280026611523E-01
 cg2d: Sum(rhs),rhsMax =  -3.83519952918617E-04  1.30276124524854E-01
 cg2d: Sum(rhs),rhsMax =  -3.83371918527115E-04  1.30272234819649E-01
 cg2d: Sum(rhs),rhsMax =  -3.83223331946059E-04  1.30268357497870E-01
(PID.TID 0000.0001)      cg2d_init_res =   1.26737417502929E-03
(PID.TID 0000.0001)      cg2d_iters(min,last) =      -1      79
(PID.TID 0000.0001)      cg2d_last_res =   9.48715193314073E-08
(PID.TID 0000.0001) // =======================================================
(PID.TID 0000.0001) // Begin MONITOR dynamic field statistics
(PID.TID 0000.0001) // =======================================================
(PID.TID 0000.0001) %MON time_tsnumber                =                  7848
(PID.TID 0000.0001) %MON time_secondsf                =   9.4176000000000E+06
(PID.TID 0000.0001) %MON dynstat_eta_max              =   3.9502846149547E-02
(PID.TID 0000.0001) %MON dynstat_eta_min              =  -2.2019657796725E-02
(PID.TID 0000.0001) %MON dynstat_eta_mean             =   2.4950483310326E-07
(PID.TID 0000.0001) %MON dynstat_eta_sd               =   1.4981907378437E-02
(PID.TID 0000.0001) %MON dynstat_eta_del2             =   1.7906114798474E-05
(PID.TID 0000.0001) %MON dynstat_uvel_max             =   2.9670053882736E-02
(PID.TID 0000.0001) %MON dynstat_uvel_min             =  -1.5699084516966E-02
(PID.TID 0000.0001) %MON dynstat_uvel_mean            =  -3.0953345624682E-08
(PID.TID 0000.0001) %MON dynstat_uvel_sd              =   6.5672689961088E-03
(PID.TID 0000.0001) %MON dynstat_uvel_del2            =   8.0494131255798E-06
(PID.TID 0000.0001) %MON dynstat_vvel_max             =   7.7466971934390E-02
(PID.TID 0000.0001) %MON dynstat_vvel_min             =  -3.5229706495439E-02
(PID.TID 0000.0001) %MON dynstat_vvel_mean            =  -1.0004593015606E-08
(PID.TID 0000.0001) %MON dynstat_vvel_sd              =   1.4529930954540E-02
(PID.TID 0000.0001) %MON dynstat_vvel_del2            =   7.2469319988142E-05
(PID.TID 0000.0001) %MON dynstat_wvel_max             =   1.8601228485932E-08
(PID.TID 0000.0001) %MON dynstat_wvel_min             =  -8.5900530894287E-09
(PID.TID 0000.0001) %MON dynstat_wvel_mean            =   3.5663136562410E-21
(PID.TID 0000.0001) %MON dynstat_wvel_sd              =   6.5596445261287E-09
(PID.TID 0000.0001) %MON dynstat_wvel_del2            =   2.6543129125423E-12
(PID.TID 0000.0001) %MON dynstat_theta_max            =   2.0000000000000E+01
(PID.TID 0000.0001) %MON dynstat_theta_min            =   2.0000000000000E+01
(PID.TID 0000.0001) %MON dynstat_theta_mean           =   2.0000000000000E+01
(PID.TID 0000.0001) %MON dynstat_theta_sd             =   0.0000000000000E+00
(PID.TID 0000.0001) %MON dynstat_theta_del2           =   0.0000000000000E+00
(PID.TID 0000.0001) %MON dynstat_salt_max             =   3.0000000000000E+01
(PID.TID 0000.0001) %MON dynstat_salt_min             =   3.0000000000000E+01
(PID.TID 0000.0001) %MON dynstat_salt_mean            =   3.0000000000000E+01
(PID.TID 0000.0001) %MON dynstat_salt_sd              =   0.0000000000000E+00
(PID.TID 0000.0001) %MON dynstat_salt_del2            =   0.0000000000000E+00
(PID.TID 0000.0001) %MON trAdv_CFL_u_max              =   1.7801880085419E-03
(PID.TID 0000.0001) %MON trAdv_CFL_v_max              =   4.6482052910435E-03
(PID.TID 0000.0001) %MON trAdv_CFL_w_max              =   4.4654033385683E-09
(PID.TID 0000.0001) %MON advcfl_uvel_max              =   1.7802032329641E-03
(PID.TID 0000.0001) %MON advcfl_vvel_max              =   4.6480183160634E-03
(PID.TID 0000.0001) %MON advcfl_wvel_max              =   8.9285896732472E-09
(PID.TID 0000.0001) %MON advcfl_W_hf_max              =   0.0000000000000E+00
(PID.TID 0000.0001) %MON pe_b_mean                    =   2.2019285533192E-07
(PID.TID 0000.0001) %MON ke_max                       =   3.0004452918029E-03
(PID.TID 0000.0001) %MON ke_mean                      =   1.2500522517591E-04
(PID.TID 0000.0001) %MON ke_vol                       =   7.2000000000000E+15
(PID.TID 0000.0001) %MON vort_r_min                   =  -1.5063561143591E-06
(PID.TID 0000.0001) %MON vort_r_max                   =   2.1061611468238E-06
(PID.TID 0000.0001) %MON vort_a_mean                  =   1.0600000000000E-04
(PID.TID 0000.0001) %MON vort_a_sd                    =   3.5360166482757E-06
(PID.TID 0000.0001) %MON vort_p_mean                  =   1.1130000000000E-04
(PID.TID 0000.0001) %MON vort_p_sd                    =   4.1152198250360E-05
(PID.TID 0000.0001) %MON surfExpan_theta_mean         =   7.1311332147969E-20
(PID.TID 0000.0001) %MON surfExpan_salt_mean          =   1.0696336655908E-19
(PID.TID 0000.0001) // =======================================================
(PID.TID 0000.0001) // End MONITOR dynamic field statistics
(PID.TID 0000.0001) // =======================================================
 cg2d: Sum(rhs),rhsMax =  -3.83074202668245E-04  1.30264492561434E-01
 cg2d: Sum(rhs),rhsMax =  -3.82924539916348E-04  1.30260640012237E-01
 cg2d: Sum(rhs),rhsMax =  -3.82774352758511E-04  1.30256799852164E-01
 cg2d: Sum(rhs),rhsMax =  -3.82623649584577E-04  1.30252972083098E-01
 cg2d: Sum(rhs),rhsMax =  -3.82472438558082E-04  1.30249156706902E-01
 cg2d: Sum(rhs),rhsMax =  -3.82320727670915E-04  1.30245353725423E-01
 cg2d: Sum(rhs),rhsMax =  -3.82168524255819E-04  1.30241563140475E-01
 cg2d: Sum(rhs),rhsMax =  -3.82015836026301E-04  1.30237784953836E-01
 cg2d: Sum(rhs),rhsMax =  -3.81862669855302E-04  1.30234019167244E-01
 cg2d: Sum(rhs),rhsMax =  -3.81709032565327E-04  1.30230265782401E-01
 cg2d: Sum(rhs),rhsMax =  -3.81554930943316E-04  1.30226524800969E-01
 cg2d: Sum(rhs),rhsMax =  -3.81400371455706E-04  1.30222796224578E-01
 cg2d: Sum(rhs),rhsMax =  -3.81245360287983E-04  1.30219080054832E-01
 cg2d: Sum(rhs),rhsMax =  -3.81089903584144E-04  1.30215376293301E-01
 cg2d: Sum(rhs),rhsMax =  -3.80934007419198E-04  1.30211684941532E-01
 cg2d: Sum(rhs),rhsMax =  -3.80777677404980E-04  1.30208006001040E-01
 cg2d: Sum(rhs),rhsMax =  -3.80620919375941E-04  1.30204339473313E-01
 cg2d: Sum(rhs),rhsMax =  -3.80463738930197E-04  1.30200685359808E-01
 cg2d: Sum(rhs),rhsMax =  -3.80306141443568E-04  1.30197043661948E-01
 cg2d: Sum(rhs),rhsMax =  -3.80148132250093E-04  1.30193414381128E-01
 cg2d: Sum(rhs),rhsMax =  -3.79989716571202E-04  1.30189797518706E-01
 cg2d: Sum(rhs),rhsMax =  -3.79830899598353E-04  1.30186193076014E-01
 cg2d: Sum(rhs),rhsMax =  -3.79671686374588E-04  1.30182601054350E-01
 cg2d: Sum(rhs),rhsMax =  -3.79512081954730E-04  1.30179021454979E-01
 cg2d: Sum(rhs),rhsMax =  -3.79352091086636E-04  1.30175454279139E-01
 cg2d: Sum(rhs),rhsMax =  -3.79191718691604E-04  1.30171899528036E-01
 cg2d: Sum(rhs),rhsMax =  -3.79030969704273E-04  1.30168357202846E-01
 cg2d: Sum(rhs),rhsMax =  -3.78869848562609E-04  1.30164827304713E-01
 cg2d: Sum(rhs),rhsMax =  -3.78708360139174E-04  1.30161309834751E-01
 cg2d: Sum(rhs),rhsMax =  -3.78546508849161E-04  1.30157804794045E-01
 cg2d: Sum(rhs),rhsMax =  -3.78384299307311E-04  1.30154312183644E-01
 cg2d: Sum(rhs),rhsMax =  -3.78221736040362E-04  1.30150832004571E-01
 cg2d: Sum(rhs),rhsMax =  -3.78058823472205E-04  1.30147364257815E-01
 cg2d: Sum(rhs),rhsMax =  -3.77895566027799E-04  1.30143908944336E-01
 cg2d: Sum(rhs),rhsMax =  -3.77731968066334E-04  1.30140466065062E-01
 cg2d: Sum(rhs),rhsMax =  -3.77568033953377E-04  1.30137035620889E-01
 cg2d: Sum(rhs),rhsMax =  -3.77403767897771E-04  1.30133617612684E-01
 cg2d: Sum(rhs),rhsMax =  -3.77239174225334E-04  1.30130212041285E-01
 cg2d: Sum(rhs),rhsMax =  -3.77074257094533E-04  1.30126818907493E-01
 cg2d: Sum(rhs),rhsMax =  -3.76909020693374E-04  1.30123438212083E-01
 cg2d: Sum(rhs),rhsMax =  -3.76743469244972E-04  1.30120069955800E-01
 cg2d: Sum(rhs),rhsMax =  -3.76577606849732E-04  1.30116714139353E-01
 cg2d: Sum(rhs),rhsMax =  -3.76411437514552E-04  1.30113370763426E-01
 cg2d: Sum(rhs),rhsMax =  -3.76244965336300E-04  1.30110039828668E-01
 cg2d: Sum(rhs),rhsMax =  -3.76078194384637E-04  1.30106721335697E-01
 cg2d: Sum(rhs),rhsMax =  -3.75911128680143E-04  1.30103415285103E-01
 cg2d: Sum(rhs),rhsMax =  -3.75743772197453E-04  1.30100121677444E-01
 cg2d: Sum(rhs),rhsMax =  -3.75576128900629E-04  1.30096840513247E-01
 cg2d: Sum(rhs),rhsMax =  -3.75408202591839E-04  1.30093571793006E-01
 cg2d: Sum(rhs),rhsMax =  -3.75239997358091E-04  1.30090315517187E-01
 cg2d: Sum(rhs),rhsMax =  -3.75071516949679E-04  1.30087071686225E-01
 cg2d: Sum(rhs),rhsMax =  -3.74902765254616E-04  1.30083840300522E-01
 cg2d: Sum(rhs),rhsMax =  -3.74733746145466E-04  1.30080621360451E-01
 cg2d: Sum(rhs),rhsMax =  -3.74564463338612E-04  1.30077414866353E-01
 cg2d: Sum(rhs),rhsMax =  -3.74394920649425E-04  1.30074220818540E-01
 cg2d: Sum(rhs),rhsMax =  -3.74225121847233E-04  1.30071039217292E-01
 cg2d: Sum(rhs),rhsMax =  -3.74055070658145E-04  1.30067870062855E-01
 cg2d: Sum(rhs),rhsMax =  -3.73884770821468E-04  1.30064713355451E-01
 cg2d: Sum(rhs),rhsMax =  -3.73714225997252E-04  1.30061569095264E-01
 cg2d: Sum(rhs),rhsMax =  -3.73493954923124E-04  1.30058437383541E-01
 cg2d: Sum(rhs),rhsMax =  -3.73273524813216E-04  1.30055318021335E-01
 cg2d: Sum(rhs),rhsMax =  -3.73053015572273E-04  1.30052211103723E-01
 cg2d: Sum(rhs),rhsMax =  -3.72832442393473E-04  1.30049116630808E-01
 cg2d: Sum(rhs),rhsMax =  -3.72611822219967E-04  1.30046034605694E-01
 cg2d: Sum(rhs),rhsMax =  -3.72391159231160E-04  1.30042965030362E-01
 cg2d: Sum(rhs),rhsMax =  -3.72170449765204E-04  1.30039907904101E-01
 cg2d: Sum(rhs),rhsMax =  -3.71949689718696E-04  1.30036863225670E-01
 cg2d: Sum(rhs),rhsMax =  -3.71728878280571E-04  1.30033830994312E-01
 cg2d: Sum(rhs),rhsMax =  -3.71508017999271E-04  1.30030811209823E-01
 cg2d: Sum(rhs),rhsMax =  -3.71287113425481E-04  1.30027803872299E-01
 cg2d: Sum(rhs),rhsMax =  -3.71013596978271E-04  1.30024808856541E-01
 cg2d: Sum(rhs),rhsMax =  -3.70740237353596E-04  1.30021826429630E-01
(PID.TID 0000.0001)      cg2d_init_res =   1.26996184126513E-03
(PID.TID 0000.0001)      cg2d_iters(min,last) =      -1      77
(PID.TID 0000.0001)      cg2d_last_res =   9.95971238201592E-08
(PID.TID 0000.0001) // =======================================================
(PID.TID 0000.0001) // Begin MONITOR dynamic field statistics
(PID.TID 0000.0001) // =======================================================
(PID.TID 0000.0001) %MON time_tsnumber                =                  7920
(PID.TID 0000.0001) %MON time_secondsf                =   9.5040000000000E+06
(PID.TID 0000.0001) %MON dynstat_eta_max              =   3.8919266668459E-02
(PID.TID 0000.0001) %MON dynstat_eta_min              =  -2.2457759302434E-02
(PID.TID 0000.0001) %MON dynstat_eta_mean             =   2.4083848822085E-07
(PID.TID 0000.0001) %MON dynstat_eta_sd               =   1.5215195002446E-02
(PID.TID 0000.0001) %MON dynstat_eta_del2             =   1.7867599899741E-05
(PID.TID 0000.0001) %MON dynstat_uvel_max             =   2.9694690520960E-02
(PID.TID 0000.0001) %MON dynstat_uvel_min             =  -1.5743902180875E-02
(PID.TID 0000.0001) %MON dynstat_uvel_mean            =  -6.2319145605134E-08
(PID.TID 0000.0001) %MON dynstat_uvel_sd              =   6.6762580208038E-03
(PID.TID 0000.0001) %MON dynstat_uvel_del2            =   8.1186029381649E-06
(PID.TID 0000.0001) %MON dynstat_vvel_max             =   7.7261721515353E-02
(PID.TID 0000.0001) %MON dynstat_vvel_min             =  -3.4956611633609E-02
(PID.TID 0000.0001) %MON dynstat_vvel_mean            =  -9.8528795534878E-09
(PID.TID 0000.0001) %MON dynstat_vvel_sd              =   1.4524275761535E-02
(PID.TID 0000.0001) %MON dynstat_vvel_del2            =   7.2375919818421E-05
(PID.TID 0000.0001) %MON dynstat_wvel_max             =   1.8193945676321E-08
(PID.TID 0000.0001) %MON dynstat_wvel_min             =  -9.2275371158030E-09
(PID.TID 0000.0001) %MON dynstat_wvel_mean            =  -4.8833499022294E-22
(PID.TID 0000.0001) %MON dynstat_wvel_sd              =   6.5486284102393E-09
(PID.TID 0000.0001) %MON dynstat_wvel_del2            =   2.6328260391240E-12
(PID.TID 0000.0001) %MON dynstat_theta_max            =   2.0000000000000E+01
(PID.TID 0000.0001) %MON dynstat_theta_min            =   2.0000000000000E+01
(PID.TID 0000.0001) %MON dynstat_theta_mean           =   2.0000000000000E+01
(PID.TID 0000.0001) %MON dynstat_theta_sd             =   0.0000000000000E+00
(PID.TID 0000.0001) %MON dynstat_theta_del2           =   0.0000000000000E+00
(PID.TID 0000.0001) %MON dynstat_salt_max             =   3.0000000000000E+01
(PID.TID 0000.0001) %MON dynstat_salt_min             =   3.0000000000000E+01
(PID.TID 0000.0001) %MON dynstat_salt_mean            =   3.0000000000000E+01
(PID.TID 0000.0001) %MON dynstat_salt_sd              =   0.0000000000000E+00
(PID.TID 0000.0001) %MON dynstat_salt_del2            =   0.0000000000000E+00
(PID.TID 0000.0001) %MON trAdv_CFL_u_max              =   1.7816557013247E-03
(PID.TID 0000.0001) %MON trAdv_CFL_v_max              =   4.6358587250192E-03
(PID.TID 0000.0001) %MON trAdv_CFL_w_max              =   4.3675587646896E-09
(PID.TID 0000.0001) %MON advcfl_uvel_max              =   1.7816814312576E-03
(PID.TID 0000.0001) %MON advcfl_vvel_max              =   4.6357032909212E-03
(PID.TID 0000.0001) %MON advcfl_wvel_max              =   8.7330939246342E-09
(PID.TID 0000.0001) %MON advcfl_W_hf_max              =   0.0000000000000E+00
(PID.TID 0000.0001) %MON pe_b_mean                    =   2.2710361799907E-07
(PID.TID 0000.0001) %MON ke_max                       =   2.9843210597805E-03
(PID.TID 0000.0001) %MON ke_mean                      =   1.2563411205104E-04
(PID.TID 0000.0001) %MON ke_vol                       =   7.2000000000000E+15
(PID.TID 0000.0001) %MON vort_r_min                   =  -1.5010901153425E-06
(PID.TID 0000.0001) %MON vort_r_max                   =   2.1031444240657E-06
(PID.TID 0000.0001) %MON vort_a_mean                  =   1.0600000000000E-04
(PID.TID 0000.0001) %MON vort_a_sd                    =   3.5359961256722E-06
(PID.TID 0000.0001) %MON vort_p_mean                  =   1.1130000000000E-04
(PID.TID 0000.0001) %MON vort_p_sd                    =   4.1152312982416E-05
(PID.TID 0000.0001) %MON surfExpan_theta_mean         =  -9.7669674816972E-21
(PID.TID 0000.0001) %MON surfExpan_salt_mean          =  -1.4652027739241E-20
(PID.TID 0000.0001) // =======================================================
(PID.TID 0000.0001) // End MONITOR dynamic field statistics
(PID.TID 0000.0001) // =======================================================
 cg2d: Sum(rhs),rhsMax =  -3.70467015055941E-04  1.30018856435002E-01
 cg2d: Sum(rhs),rhsMax =  -3.70193987698231E-04  1.30015898883676E-01
 cg2d: Sum(rhs),rhsMax =  -3.69921174305196E-04  1.30012953778650E-01
 cg2d: Sum(rhs),rhsMax =  -3.69648577582708E-04  1.30010021121408E-01
 cg2d: Sum(rhs),rhsMax =  -3.69376190890958E-04  1.30007100910741E-01
 cg2d: Sum(rhs),rhsMax =  -3.69104007527352E-04  1.30004193145097E-01
 cg2d: Sum(rhs),rhsMax =  -3.68832024815902E-04  1.30001297823439E-01
 cg2d: Sum(rhs),rhsMax =  -3.68560244400479E-04  1.29998414945274E-01
 cg2d: Sum(rhs),rhsMax =  -3.68288670443289E-04  1.29995544510388E-01
 cg2d: Sum(rhs),rhsMax =  -3.68017307344303E-04  1.29992686518560E-01
 cg2d: Sum(rhs),rhsMax =  -3.67746158226323E-04  1.29989840969405E-01
 cg2d: Sum(rhs),rhsMax =  -3.67475225213396E-04  1.29987007862344E-01
 cg2d: Sum(rhs),rhsMax =  -3.67204509569717E-04  1.29984187196660E-01
 cg2d: Sum(rhs),rhsMax =  -3.66934012533830E-04  1.29981378971582E-01
 cg2d: Sum(rhs),rhsMax =  -3.66663735548584E-04  1.29978583186353E-01
 cg2d: Sum(rhs),rhsMax =  -3.66393680170812E-04  1.29975799840244E-01
 cg2d: Sum(rhs),rhsMax =  -3.66123848312906E-04  1.29973028932541E-01
 cg2d: Sum(rhs),rhsMax =  -3.65854241683328E-04  1.29970270462523E-01
 cg2d: Sum(rhs),rhsMax =  -3.65584861990067E-04  1.29967524429433E-01
 cg2d: Sum(rhs),rhsMax =  -3.65315710819601E-04  1.29964790832468E-01
 cg2d: Sum(rhs),rhsMax =  -3.65046789738486E-04  1.29962069670774E-01
 cg2d: Sum(rhs),rhsMax =  -3.64778100241450E-04  1.29959360943455E-01
 cg2d: Sum(rhs),rhsMax =  -3.64509643724301E-04  1.29956664649578E-01
 cg2d: Sum(rhs),rhsMax =  -3.64241421700192E-04  1.29953980788179E-01
 cg2d: Sum(rhs),rhsMax =  -3.63973435375959E-04  1.29951309358268E-01
 cg2d: Sum(rhs),rhsMax =  -3.63705686305555E-04  1.29948650358828E-01
 cg2d: Sum(rhs),rhsMax =  -3.63438175743858E-04  1.29946003788819E-01
 cg2d: Sum(rhs),rhsMax =  -3.63170904998139E-04  1.29943369647167E-01
 cg2d: Sum(rhs),rhsMax =  -3.62903875480398E-04  1.29940747932775E-01
 cg2d: Sum(rhs),rhsMax =  -3.62637088341378E-04  1.29938138644509E-01
 cg2d: Sum(rhs),rhsMax =  -3.62370544736726E-04  1.29935541781207E-01
 cg2d: Sum(rhs),rhsMax =  -3.62104245925182E-04  1.29932957341673E-01
 cg2d: Sum(rhs),rhsMax =  -3.61838193057159E-04  1.29930385324680E-01
 cg2d: Sum(rhs),rhsMax =  -3.61572387225799E-04  1.29927825728972E-01
 cg2d: Sum(rhs),rhsMax =  -3.61306829554160E-04  1.29925278553257E-01
 cg2d: Sum(rhs),rhsMax =  -3.61041521129679E-04  1.29922743796216E-01
 cg2d: Sum(rhs),rhsMax =  -3.60776462927486E-04  1.29920221456499E-01
 cg2d: Sum(rhs),rhsMax =  -3.60467593269826E-04  1.29917711521679E-01
 cg2d: Sum(rhs),rhsMax =  -3.60159061275326E-04  1.29915214018902E-01
 cg2d: Sum(rhs),rhsMax =  -3.59850956564637E-04  1.29912728921953E-01
 cg2d: Sum(rhs),rhsMax =  -3.59543292860168E-04  1.29910256235349E-01
 cg2d: Sum(rhs),rhsMax =  -3.59236085786035E-04  1.29907795959460E-01
 cg2d: Sum(rhs),rhsMax =  -3.58929335776507E-04  1.29905348093701E-01
 cg2d: Sum(rhs),rhsMax =  -3.58623034984910E-04  1.29902912635971E-01
 cg2d: Sum(rhs),rhsMax =  -3.58317175388403E-04  1.29900489583813E-01
 cg2d: Sum(rhs),rhsMax =  -3.58011752368726E-04  1.29898078935126E-01
 cg2d: Sum(rhs),rhsMax =  -3.57706765504410E-04  1.29895680688203E-01
 cg2d: Sum(rhs),rhsMax =  -3.57402216394156E-04  1.29893294841539E-01
 cg2d: Sum(rhs),rhsMax =  -3.57098106920652E-04  1.29890921393632E-01
 cg2d: Sum(rhs),rhsMax =  -3.56794438051786E-04  1.29888560342862E-01
 cg2d: Sum(rhs),rhsMax =  -3.56491209653083E-04  1.29886211687468E-01
 cg2d: Sum(rhs),rhsMax =  -3.56188420982251E-04  1.29883875425579E-01
 cg2d: Sum(rhs),rhsMax =  -3.55886070995314E-04  1.29881551555279E-01
 cg2d: Sum(rhs),rhsMax =  -3.55584159064156E-04  1.29879240074643E-01
 cg2d: Sum(rhs),rhsMax =  -3.55282684672582E-04  1.29876940981754E-01
 cg2d: Sum(rhs),rhsMax =  -3.54981647460850E-04  1.29874654274696E-01
 cg2d: Sum(rhs),rhsMax =  -3.54681047137395E-04  1.29872379951537E-01
 cg2d: Sum(rhs),rhsMax =  -3.54380883165786E-04  1.29870118010312E-01
 cg2d: Sum(rhs),rhsMax =  -3.54081155140146E-04  1.29867868449016E-01
 cg2d: Sum(rhs),rhsMax =  -3.53781862359666E-04  1.29865631265604E-01
 cg2d: Sum(rhs),rhsMax =  -3.53483004161544E-04  1.29863406457988E-01
 cg2d: Sum(rhs),rhsMax =  -3.53184579829534E-04  1.29861194024052E-01
 cg2d: Sum(rhs),rhsMax =  -3.52886588671064E-04  1.29858993961644E-01
 cg2d: Sum(rhs),rhsMax =  -3.52589030072755E-04  1.29856806268589E-01
 cg2d: Sum(rhs),rhsMax =  -3.52291903338686E-04  1.29854630942680E-01
 cg2d: Sum(rhs),rhsMax =  -3.51995207648978E-04  1.29852467981686E-01
 cg2d: Sum(rhs),rhsMax =  -3.51698942155687E-04  1.29850317383345E-01
 cg2d: Sum(rhs),rhsMax =  -3.51403106064642E-04  1.29848179145366E-01
 cg2d: Sum(rhs),rhsMax =  -3.51107698479550E-04  1.29846053265425E-01
 cg2d: Sum(rhs),rhsMax =  -3.50812718503443E-04  1.29843939741172E-01
 cg2d: Sum(rhs),rhsMax =  -3.50518165349433E-04  1.29841838570220E-01
 cg2d: Sum(rhs),rhsMax =  -3.50224038039996E-04  1.29839749750156E-01
(PID.TID 0000.0001)      cg2d_init_res =   1.27220361177304E-03
(PID.TID 0000.0001)      cg2d_iters(min,last) =      -1      76
(PID.TID 0000.0001)      cg2d_last_res =   9.32086336553787E-08
(PID.TID 0000.0001) // =======================================================
(PID.TID 0000.0001) // Begin MONITOR dynamic field statistics
(PID.TID 0000.0001) // =======================================================
(PID.TID 0000.0001) %MON time_tsnumber                =                  7992
(PID.TID 0000.0001) %MON time_secondsf                =   9.5904000000000E+06
(PID.TID 0000.0001) %MON dynstat_eta_max              =   3.8386682312218E-02
(PID.TID 0000.0001) %MON dynstat_eta_min              =  -2.2884840204110E-02
(PID.TID 0000.0001) %MON dynstat_eta_mean             =   2.2717070287905E-07
(PID.TID 0000.0001) %MON dynstat_eta_sd               =   1.5478382800739E-02
(PID.TID 0000.0001) %MON dynstat_eta_del2             =   1.7831986722797E-05
(PID.TID 0000.0001) %MON dynstat_uvel_max             =   2.9732046968990E-02
(PID.TID 0000.0001) %MON dynstat_uvel_min             =  -1.5796354126931E-02
(PID.TID 0000.0001) %MON dynstat_uvel_mean            =  -9.2985253430018E-08
(PID.TID 0000.0001) %MON dynstat_uvel_sd              =   6.7877901598104E-03
(PID.TID 0000.0001) %MON dynstat_uvel_del2            =   8.1911376560899E-06
(PID.TID 0000.0001) %MON dynstat_vvel_max             =   7.7094650513786E-02
(PID.TID 0000.0001) %MON dynstat_vvel_min             =  -3.4661673050133E-02
(PID.TID 0000.0001) %MON dynstat_vvel_mean            =  -9.5512446317163E-09
(PID.TID 0000.0001) %MON dynstat_vvel_sd              =   1.4526021421848E-02
(PID.TID 0000.0001) %MON dynstat_vvel_del2            =   7.2307628784137E-05
(PID.TID 0000.0001) %MON dynstat_wvel_max             =   1.7787363741663E-08
(PID.TID 0000.0001) %MON dynstat_wvel_min             =  -9.8847293312429E-09
(PID.TID 0000.0001) %MON dynstat_wvel_mean            =   2.5697381210597E-21
(PID.TID 0000.0001) %MON dynstat_wvel_sd              =   6.5392444207491E-09
(PID.TID 0000.0001) %MON dynstat_wvel_del2            =   2.6153864554551E-12
(PID.TID 0000.0001) %MON dynstat_theta_max            =   2.0000000000000E+01
(PID.TID 0000.0001) %MON dynstat_theta_min            =   2.0000000000000E+01
(PID.TID 0000.0001) %MON dynstat_theta_mean           =   2.0000000000000E+01
(PID.TID 0000.0001) %MON dynstat_theta_sd             =   0.0000000000000E+00
(PID.TID 0000.0001) %MON dynstat_theta_del2           =   0.0000000000000E+00
(PID.TID 0000.0001) %MON dynstat_salt_max             =   3.0000000000000E+01
(PID.TID 0000.0001) %MON dynstat_salt_min             =   3.0000000000000E+01
(PID.TID 0000.0001) %MON dynstat_salt_mean            =   3.0000000000000E+01
(PID.TID 0000.0001) %MON dynstat_salt_sd              =   0.0000000000000E+00
(PID.TID 0000.0001) %MON dynstat_salt_del2            =   0.0000000000000E+00
(PID.TID 0000.0001) %MON trAdv_CFL_u_max              =   1.7838864209929E-03
(PID.TID 0000.0001) %MON trAdv_CFL_v_max              =   4.6258024469338E-03
(PID.TID 0000.0001) %MON trAdv_CFL_w_max              =   4.2706575808581E-09
(PID.TID 0000.0001) %MON advcfl_uvel_max              =   1.7839228181394E-03
(PID.TID 0000.0001) %MON advcfl_vvel_max              =   4.6256790308272E-03
(PID.TID 0000.0001) %MON advcfl_wvel_max              =   8.5379345959984E-09
(PID.TID 0000.0001) %MON advcfl_W_hf_max              =   0.0000000000000E+00
(PID.TID 0000.0001) %MON pe_b_mean                    =   2.3502830782843E-07
(PID.TID 0000.0001) %MON ke_max                       =   2.9713264643359E-03
(PID.TID 0000.0001) %MON ke_mean                      =   1.2639736852509E-04
(PID.TID 0000.0001) %MON ke_vol                       =   7.2000000000000E+15
(PID.TID 0000.0001) %MON vort_r_min                   =  -1.4956990349226E-06
(PID.TID 0000.0001) %MON vort_r_max                   =   2.1039512502488E-06
(PID.TID 0000.0001) %MON vort_a_mean                  =   1.0600000000000E-04
(PID.TID 0000.0001) %MON vort_a_sd                    =   3.5359887287025E-06
(PID.TID 0000.0001) %MON vort_p_mean                  =   1.1130000000000E-04
(PID.TID 0000.0001) %MON vort_p_sd                    =   4.1152422076349E-05
(PID.TID 0000.0001) %MON surfExpan_theta_mean         =   5.1404446131818E-20
(PID.TID 0000.0001) %MON surfExpan_salt_mean          =   7.7102724205247E-20
(PID.TID 0000.0001) // =======================================================
(PID.TID 0000.0001) // End MONITOR dynamic field statistics
(PID.TID 0000.0001) // =======================================================
 cg2d: Sum(rhs),rhsMax =  -3.49930335557426E-04  1.29837673278534E-01
 cg2d: Sum(rhs),rhsMax =  -3.49637056937189E-04  1.29835609152877E-01
 cg2d: Sum(rhs),rhsMax =  -3.49344201095759E-04  1.29833557370678E-01
 cg2d: Sum(rhs),rhsMax =  -3.49051767120333E-04  1.29831517929403E-01
 cg2d: Sum(rhs),rhsMax =  -3.48759753856895E-04  1.29829490826483E-01
 cg2d: Sum(rhs),rhsMax =  -3.48468160231504E-04  1.29827476059323E-01
 cg2d: Sum(rhs),rhsMax =  -3.48176985029495E-04  1.29825473625296E-01
 cg2d: Sum(rhs),rhsMax =  -3.47886227229417E-04  1.29823483521746E-01
 cg2d: Sum(rhs),rhsMax =  -3.47595885534165E-04  1.29821505745985E-01
 cg2d: Sum(rhs),rhsMax =  -3.47305958931949E-04  1.29819540295296E-01
 cg2d: Sum(rhs),rhsMax =  -3.47016445950263E-04  1.29817587166933E-01
 cg2d: Sum(rhs),rhsMax =  -3.46727345595679E-04  1.29815646358115E-01
 cg2d: Sum(rhs),rhsMax =  -3.46438656415072E-04  1.29813717866036E-01
 cg2d: Sum(rhs),rhsMax =  -3.46150377206725E-04  1.29811801687858E-01
 cg2d: Sum(rhs),rhsMax =  -3.45862506673482E-04  1.29809897820711E-01
 cg2d: Sum(rhs),rhsMax =  -3.45575043341544E-04  1.29808006261698E-01
 cg2d: Sum(rhs),rhsMax =  -3.45287985911138E-04  1.29806127007891E-01
 cg2d: Sum(rhs),rhsMax =  -3.45001333107811E-04  1.29804260056329E-01
 cg2d: Sum(rhs),rhsMax =  -3.44715083413540E-04  1.29802405404025E-01
 cg2d: Sum(rhs),rhsMax =  -3.44429235428612E-04  1.29800563047959E-01
 cg2d: Sum(rhs),rhsMax =  -3.44143787684099E-04  1.29798732985084E-01
 cg2d: Sum(rhs),rhsMax =  -3.43858738670737E-04  1.29796915212319E-01
 cg2d: Sum(rhs),rhsMax =  -3.43574087053527E-04  1.29795109726555E-01
 cg2d: Sum(rhs),rhsMax =  -3.43289831069631E-04  1.29793316524653E-01
 cg2d: Sum(rhs),rhsMax =  -3.43005969332883E-04  1.29791535603445E-01
 cg2d: Sum(rhs),rhsMax =  -3.42722500291389E-04  1.29789766959729E-01
 cg2d: Sum(rhs),rhsMax =  -3.42439422274816E-04  1.29788010590279E-01
 cg2d: Sum(rhs),rhsMax =  -3.42156733867825E-04  1.29786266491833E-01
 cg2d: Sum(rhs),rhsMax =  -3.41874433253712E-04  1.29784534661103E-01
 cg2d: Sum(rhs),rhsMax =  -3.41592518927997E-04  1.29782815094770E-01
 cg2d: Sum(rhs),rhsMax =  -3.41310989160877E-04  1.29781107789483E-01
 cg2d: Sum(rhs),rhsMax =  -3.41029842276151E-04  1.29779412741865E-01
 cg2d: Sum(rhs),rhsMax =  -3.40749076666407E-04  1.29777729948505E-01
 cg2d: Sum(rhs),rhsMax =  -3.40468690481921E-04  1.29776059405964E-01
 cg2d: Sum(rhs),rhsMax =  -3.40188682098046E-04  1.29774401110774E-01
 cg2d: Sum(rhs),rhsMax =  -3.39909049764651E-04  1.29772755059436E-01
 cg2d: Sum(rhs),rhsMax =  -3.39629791671642E-04  1.29771121248419E-01
 cg2d: Sum(rhs),rhsMax =  -3.39350905967212E-04  1.29769499674167E-01
 cg2d: Sum(rhs),rhsMax =  -3.39072390999819E-04  1.29767890333089E-01
 cg2d: Sum(rhs),rhsMax =  -3.38794244795278E-04  1.29766293221570E-01
 cg2d: Sum(rhs),rhsMax =  -3.38516465683864E-04  1.29764708335957E-01
 cg2d: Sum(rhs),rhsMax =  -3.38239051704533E-04  1.29763135672575E-01
 cg2d: Sum(rhs),rhsMax =  -3.37962000988739E-04  1.29761575227714E-01
 cg2d: Sum(rhs),rhsMax =  -3.37685311669932E-04  1.29760026997637E-01
 cg2d: Sum(rhs),rhsMax =  -3.37408981805883E-04  1.29758490978578E-01
 cg2d: Sum(rhs),rhsMax =  -3.37133009548001E-04  1.29756967166737E-01
 cg2d: Sum(rhs),rhsMax =  -3.36818692410520E-04  1.29755455561442E-01
 cg2d: Sum(rhs),rhsMax =  -3.36504779918724E-04  1.29753956172237E-01
 cg2d: Sum(rhs),rhsMax =  -3.36191258211728E-04  1.29752468957765E-01
 cg2d: Sum(rhs),rhsMax =  -3.35878161684954E-04  1.29750993936494E-01
 cg2d: Sum(rhs),rhsMax =  -3.35565499208510E-04  1.29749531103663E-01
 cg2d: Sum(rhs),rhsMax =  -3.35253267624147E-04  1.29748080455678E-01
 cg2d: Sum(rhs),rhsMax =  -3.34941457311794E-04  1.29746641988128E-01
 cg2d: Sum(rhs),rhsMax =  -3.34630058529676E-04  1.29745215696444E-01
 cg2d: Sum(rhs),rhsMax =  -3.34319064492355E-04  1.29743801576243E-01
 cg2d: Sum(rhs),rhsMax =  -3.34008471595607E-04  1.29742399623386E-01
 cg2d: Sum(rhs),rhsMax =  -3.33698278113853E-04  1.29741009833860E-01
 cg2d: Sum(rhs),rhsMax =  -3.33388482252629E-04  1.29739632203647E-01
 cg2d: Sum(rhs),rhsMax =  -3.33079081437092E-04  1.29738266728654E-01
 cg2d: Sum(rhs),rhsMax =  -3.32770072372473E-04  1.29736913404681E-01
 cg2d: Sum(rhs),rhsMax =  -3.32461451244094E-04  1.29735572227451E-01
 cg2d: Sum(rhs),rhsMax =  -3.32153214195233E-04  1.29734243192644E-01
 cg2d: Sum(rhs),rhsMax =  -3.31845357518490E-04  1.29732926295923E-01
 cg2d: Sum(rhs),rhsMax =  -3.31537877652298E-04  1.29731621532944E-01
 cg2d: Sum(rhs),rhsMax =  -3.31230771130400E-04  1.29730328899355E-01
 cg2d: Sum(rhs),rhsMax =  -3.30924034631058E-04  1.29729048390780E-01
 cg2d: Sum(rhs),rhsMax =  -3.30617664701471E-04  1.29727780002814E-01
 cg2d: Sum(rhs),rhsMax =  -3.30311657774458E-04  1.29726523731015E-01
 cg2d: Sum(rhs),rhsMax =  -3.30006010267439E-04  1.29725279570907E-01
 cg2d: Sum(rhs),rhsMax =  -3.29700718645741E-04  1.29724047517979E-01
 cg2d: Sum(rhs),rhsMax =  -3.29395779288860E-04  1.29722827567688E-01
 cg2d: Sum(rhs),rhsMax =  -3.29091188602680E-04  1.29721619715465E-01
(PID.TID 0000.0001)      cg2d_init_res =   1.27387722393636E-03
(PID.TID 0000.0001)      cg2d_iters(min,last) =      -1      75
(PID.TID 0000.0001)      cg2d_last_res =   9.79134314445982E-08
(PID.TID 0000.0001) // =======================================================
(PID.TID 0000.0001) // Begin MONITOR dynamic field statistics
(PID.TID 0000.0001) // =======================================================
(PID.TID 0000.0001) %MON time_tsnumber                =                  8064
(PID.TID 0000.0001) %MON time_secondsf                =   9.6768000000000E+06
(PID.TID 0000.0001) %MON dynstat_eta_max              =   3.8237854224460E-02
(PID.TID 0000.0001) %MON dynstat_eta_min              =  -2.3295500993823E-02
(PID.TID 0000.0001) %MON dynstat_eta_mean             =   2.1325190821727E-07
(PID.TID 0000.0001) %MON dynstat_eta_sd               =   1.5766883112937E-02
(PID.TID 0000.0001) %MON dynstat_eta_del2             =   1.7799612711135E-05
(PID.TID 0000.0001) %MON dynstat_uvel_max             =   2.9782226441182E-02
(PID.TID 0000.0001) %MON dynstat_uvel_min             =  -1.5856092411083E-02
(PID.TID 0000.0001) %MON dynstat_uvel_mean            =  -1.2255559050191E-07
(PID.TID 0000.0001) %MON dynstat_uvel_sd              =   6.9002439958585E-03
(PID.TID 0000.0001) %MON dynstat_uvel_del2            =   8.2656522485374E-06
(PID.TID 0000.0001) %MON dynstat_vvel_max             =   7.6966087322527E-02
(PID.TID 0000.0001) %MON dynstat_vvel_min             =  -3.4347911339948E-02
(PID.TID 0000.0001) %MON dynstat_vvel_mean            =  -9.1032139812515E-09
(PID.TID 0000.0001) %MON dynstat_vvel_sd              =   1.4535206487510E-02
(PID.TID 0000.0001) %MON dynstat_vvel_del2            =   7.2265645053536E-05
(PID.TID 0000.0001) %MON dynstat_wvel_max             =   1.7276429056219E-08
(PID.TID 0000.0001) %MON dynstat_wvel_min             =  -1.0504313202109E-08
(PID.TID 0000.0001) %MON dynstat_wvel_mean            =   7.3760272951202E-22
(PID.TID 0000.0001) %MON dynstat_wvel_sd              =   6.5310657911865E-09
(PID.TID 0000.0001) %MON dynstat_wvel_del2            =   2.5935476077498E-12
(PID.TID 0000.0001) %MON dynstat_theta_max            =   2.0000000000000E+01
(PID.TID 0000.0001) %MON dynstat_theta_min            =   2.0000000000000E+01
(PID.TID 0000.0001) %MON dynstat_theta_mean           =   2.0000000000000E+01
(PID.TID 0000.0001) %MON dynstat_theta_sd             =   0.0000000000000E+00
(PID.TID 0000.0001) %MON dynstat_theta_del2           =   0.0000000000000E+00
(PID.TID 0000.0001) %MON dynstat_salt_max             =   3.0000000000000E+01
(PID.TID 0000.0001) %MON dynstat_salt_min             =   3.0000000000000E+01
(PID.TID 0000.0001) %MON dynstat_salt_mean            =   3.0000000000000E+01
(PID.TID 0000.0001) %MON dynstat_salt_sd              =   0.0000000000000E+00
(PID.TID 0000.0001) %MON dynstat_salt_del2            =   0.0000000000000E+00
(PID.TID 0000.0001) %MON trAdv_CFL_u_max              =   1.7868865099721E-03
(PID.TID 0000.0001) %MON trAdv_CFL_v_max              =   4.6180565618069E-03
(PID.TID 0000.0001) %MON trAdv_CFL_w_max              =   4.1479604675551E-09
(PID.TID 0000.0001) %MON advcfl_uvel_max              =   1.7869335864709E-03
(PID.TID 0000.0001) %MON advcfl_vvel_max              =   4.6179652393516E-03
(PID.TID 0000.0001) %MON advcfl_wvel_max              =   8.2926859469851E-09
(PID.TID 0000.0001) %MON advcfl_W_hf_max              =   0.0000000000000E+00
(PID.TID 0000.0001) %MON pe_b_mean                    =   2.4387130568278E-07
(PID.TID 0000.0001) %MON ke_max                       =   2.9614656612969E-03
(PID.TID 0000.0001) %MON ke_mean                      =   1.2728541746891E-04
(PID.TID 0000.0001) %MON ke_vol                       =   7.2000000000000E+15
(PID.TID 0000.0001) %MON vort_r_min                   =  -1.4902211939002E-06
(PID.TID 0000.0001) %MON vort_r_max                   =   2.1113088233264E-06
(PID.TID 0000.0001) %MON vort_a_mean                  =   1.0600000000000E-04
(PID.TID 0000.0001) %MON vort_a_sd                    =   3.5359946125503E-06
(PID.TID 0000.0001) %MON vort_p_mean                  =   1.1130000000000E-04
(PID.TID 0000.0001) %MON vort_p_sd                    =   4.1152523945209E-05
(PID.TID 0000.0001) %MON surfExpan_theta_mean         =   1.4727498233292E-20
(PID.TID 0000.0001) %MON surfExpan_salt_mean          =   2.2092510537024E-20
(PID.TID 0000.0001) // =======================================================
(PID.TID 0000.0001) // End MONITOR dynamic field statistics
(PID.TID 0000.0001) // =======================================================
 cg2d: Sum(rhs),rhsMax =  -3.28786943021924E-04  1.29720423956709E-01
 cg2d: Sum(rhs),rhsMax =  -3.28483039004032E-04  1.29719240286794E-01
 cg2d: Sum(rhs),rhsMax =  -3.28179472800560E-04  1.29718068701064E-01
 cg2d: Sum(rhs),rhsMax =  -3.27876240876149E-04  1.29716909194835E-01
 cg2d: Sum(rhs),rhsMax =  -3.27573339663877E-04  1.29715761763396E-01
 cg2d: Sum(rhs),rhsMax =  -3.27270765317459E-04  1.29714626402002E-01
 cg2d: Sum(rhs),rhsMax =  -3.26968514386868E-04  1.29713503105882E-01
 cg2d: Sum(rhs),rhsMax =  -3.26666583067028E-04  1.29712391870234E-01
 cg2d: Sum(rhs),rhsMax =  -3.26364967701805E-04  1.29711292690226E-01
 cg2d: Sum(rhs),rhsMax =  -3.26063664639221E-04  1.29710205560997E-01
 cg2d: Sum(rhs),rhsMax =  -3.25762670294002E-04  1.29709130477657E-01
 cg2d: Sum(rhs),rhsMax =  -3.25461980723819E-04  1.29708067435288E-01
 cg2d: Sum(rhs),rhsMax =  -3.25161592288963E-04  1.29707016428939E-01
 cg2d: Sum(rhs),rhsMax =  -3.24861501345833E-04  1.29705977453633E-01
 cg2d: Sum(rhs),rhsMax =  -3.24561704141710E-04  1.29704950504363E-01
 cg2d: Sum(rhs),rhsMax =  -3.24262196926203E-04  1.29703935576095E-01
 cg2d: Sum(rhs),rhsMax =  -3.23962975967280E-04  1.29702932663761E-01
 cg2d: Sum(rhs),rhsMax =  -3.23664037319918E-04  1.29701941762268E-01
 cg2d: Sum(rhs),rhsMax =  -3.23365377452716E-04  1.29700962866494E-01
 cg2d: Sum(rhs),rhsMax =  -3.23066992418769E-04  1.29699995971284E-01
 cg2d: Sum(rhs),rhsMax =  -3.22768878495483E-04  1.29699041071457E-01
 cg2d: Sum(rhs),rhsMax =  -3.22471031824092E-04  1.29698098161803E-01
 cg2d: Sum(rhs),rhsMax =  -3.22173448639869E-04  1.29697167237081E-01
 cg2d: Sum(rhs),rhsMax =  -3.21876125145545E-04  1.29696248292023E-01
 cg2d: Sum(rhs),rhsMax =  -3.21579057439468E-04  1.29695341321330E-01
 cg2d: Sum(rhs),rhsMax =  -3.21282241633894E-04  1.29694446319675E-01
 cg2d: Sum(rhs),rhsMax =  -3.20985673974287E-04  1.29693563281702E-01
 cg2d: Sum(rhs),rhsMax =  -3.20689350520218E-04  1.29692692202027E-01
 cg2d: Sum(rhs),rhsMax =  -3.20393267432746E-04  1.29691833075235E-01
 cg2d: Sum(rhs),rhsMax =  -3.20097420852372E-04  1.29690985895884E-01
 cg2d: Sum(rhs),rhsMax =  -3.19801806879727E-04  1.29690150658501E-01
 cg2d: Sum(rhs),rhsMax =  -3.19506421598298E-04  1.29689327357585E-01
 cg2d: Sum(rhs),rhsMax =  -3.19211261119184E-04  1.29688515987608E-01
 cg2d: Sum(rhs),rhsMax =  -3.18916321412371E-04  1.29687716543009E-01
 cg2d: Sum(rhs),rhsMax =  -3.18621598653031E-04  1.29686929018202E-01
 cg2d: Sum(rhs),rhsMax =  -3.18327088765329E-04  1.29686153407570E-01
 cg2d: Sum(rhs),rhsMax =  -3.18032787910953E-04  1.29685389705469E-01
 cg2d: Sum(rhs),rhsMax =  -3.17738692089535E-04  1.29684637906224E-01
 cg2d: Sum(rhs),rhsMax =  -3.17444797371874E-04  1.29683898004132E-01
 cg2d: Sum(rhs),rhsMax =  -3.17151099687415E-04  1.29683169993462E-01
 cg2d: Sum(rhs),rhsMax =  -3.16857594964352E-04  1.29682453868453E-01
 cg2d: Sum(rhs),rhsMax =  -3.16564279387487E-04  1.29681749623317E-01
 cg2d: Sum(rhs),rhsMax =  -3.16271148673282E-04  1.29681057252234E-01
 cg2d: Sum(rhs),rhsMax =  -3.15978198982321E-04  1.29680376749361E-01
 cg2d: Sum(rhs),rhsMax =  -3.15685426280303E-04  1.29679708108818E-01
 cg2d: Sum(rhs),rhsMax =  -3.15392826469437E-04  1.29679051324705E-01
 cg2d: Sum(rhs),rhsMax =  -3.15100395445831E-04  1.29678406391087E-01
 cg2d: Sum(rhs),rhsMax =  -3.14808129054578E-04  1.29677773302004E-01
 cg2d: Sum(rhs),rhsMax =  -3.14516023404431E-04  1.29677152051467E-01
 cg2d: Sum(rhs),rhsMax =  -3.14224074251127E-04  1.29676542633455E-01
 cg2d: Sum(rhs),rhsMax =  -3.13932277517952E-04  1.29675945041922E-01
 cg2d: Sum(rhs),rhsMax =  -3.13640629182993E-04  1.29675359270793E-01
 cg2d: Sum(rhs),rhsMax =  -3.13349124983558E-04  1.29674785313964E-01
 cg2d: Sum(rhs),rhsMax =  -3.13057760784934E-04  1.29674223165300E-01
 cg2d: Sum(rhs),rhsMax =  -3.12766532536634E-04  1.29673672818643E-01
 cg2d: Sum(rhs),rhsMax =  -3.12475435974765E-04  1.29673134267801E-01
 cg2d: Sum(rhs),rhsMax =  -3.12184466994297E-04  1.29672607506556E-01
 cg2d: Sum(rhs),rhsMax =  -3.11893621324425E-04  1.29672092528662E-01
 cg2d: Sum(rhs),rhsMax =  -3.11602894853338E-04  1.29671589327843E-01
 cg2d: Sum(rhs),rhsMax =  -3.11312283280980E-04  1.29671097897797E-01
 cg2d: Sum(rhs),rhsMax =  -3.11021782450554E-04  1.29670618232191E-01
 cg2d: Sum(rhs),rhsMax =  -3.10731388293502E-04  1.29670150324663E-01
 cg2d: Sum(rhs),rhsMax =  -3.10441096337147E-04  1.29669694168827E-01
 cg2d: Sum(rhs),rhsMax =  -3.10150902483949E-04  1.29669249758266E-01
 cg2d: Sum(rhs),rhsMax =  -3.09860802382753E-04  1.29668817086532E-01
 cg2d: Sum(rhs),rhsMax =  -3.09570791808448E-04  1.29668396147154E-01
 cg2d: Sum(rhs),rhsMax =  -3.09280866587796E-04  1.29667986933628E-01
 cg2d: Sum(rhs),rhsMax =  -3.08991022337490E-04  1.29667589439425E-01
 cg2d: Sum(rhs),rhsMax =  -3.08701254756090E-04  1.29667203657986E-01
 cg2d: Sum(rhs),rhsMax =  -3.08411559696940E-04  1.29666829582725E-01
 cg2d: Sum(rhs),rhsMax =  -3.08121932736076E-04  1.29666467207026E-01
 cg2d: Sum(rhs),rhsMax =  -3.07832369722879E-04  1.29666116524247E-01
(PID.TID 0000.0001)      cg2d_init_res =   1.27476321028291E-03
(PID.TID 0000.0001)      cg2d_iters(min,last) =      -1      75
(PID.TID 0000.0001)      cg2d_last_res =   9.67704977928547E-08
(PID.TID 0000.0001) // =======================================================
(PID.TID 0000.0001) // Begin MONITOR dynamic field statistics
(PID.TID 0000.0001) // =======================================================
(PID.TID 0000.0001) %MON time_tsnumber                =                  8136
(PID.TID 0000.0001) %MON time_secondsf                =   9.7632000000000E+06
(PID.TID 0000.0001) %MON dynstat_eta_max              =   3.8254106283822E-02
(PID.TID 0000.0001) %MON dynstat_eta_min              =  -2.3684530975148E-02
(PID.TID 0000.0001) %MON dynstat_eta_mean             =   1.9938892427241E-07
(PID.TID 0000.0001) %MON dynstat_eta_sd               =   1.6075932331941E-02
(PID.TID 0000.0001) %MON dynstat_eta_del2             =   1.7770787988238E-05
(PID.TID 0000.0001) %MON dynstat_uvel_max             =   2.9845152168764E-02
(PID.TID 0000.0001) %MON dynstat_uvel_min             =  -1.5922617133929E-02
(PID.TID 0000.0001) %MON dynstat_uvel_mean            =  -1.5065143185791E-07
(PID.TID 0000.0001) %MON dynstat_uvel_sd              =   7.0120164124423E-03
(PID.TID 0000.0001) %MON dynstat_uvel_del2            =   8.3407299583044E-06
(PID.TID 0000.0001) %MON dynstat_vvel_max             =   7.6875879248237E-02
(PID.TID 0000.0001) %MON dynstat_vvel_min             =  -3.4018560576590E-02
(PID.TID 0000.0001) %MON dynstat_vvel_mean            =  -8.5128194991373E-09
(PID.TID 0000.0001) %MON dynstat_vvel_sd              =   1.4551785772390E-02
(PID.TID 0000.0001) %MON dynstat_vvel_del2            =   7.2250814425601E-05
(PID.TID 0000.0001) %MON dynstat_wvel_max             =   1.6694745169079E-08
(PID.TID 0000.0001) %MON dynstat_wvel_min             =  -1.1151005072752E-08
(PID.TID 0000.0001) %MON dynstat_wvel_mean            =   1.1825727597170E-21
(PID.TID 0000.0001) %MON dynstat_wvel_sd              =   6.5235861063309E-09
(PID.TID 0000.0001) %MON dynstat_wvel_del2            =   2.5760934342706E-12
(PID.TID 0000.0001) %MON dynstat_theta_max            =   2.0000000000000E+01
(PID.TID 0000.0001) %MON dynstat_theta_min            =   2.0000000000000E+01
(PID.TID 0000.0001) %MON dynstat_theta_mean           =   2.0000000000000E+01
(PID.TID 0000.0001) %MON dynstat_theta_sd             =   0.0000000000000E+00
(PID.TID 0000.0001) %MON dynstat_theta_del2           =   0.0000000000000E+00
(PID.TID 0000.0001) %MON dynstat_salt_max             =   3.0000000000000E+01
(PID.TID 0000.0001) %MON dynstat_salt_min             =   3.0000000000000E+01
(PID.TID 0000.0001) %MON dynstat_salt_mean            =   3.0000000000000E+01
(PID.TID 0000.0001) %MON dynstat_salt_sd              =   0.0000000000000E+00
(PID.TID 0000.0001) %MON dynstat_salt_del2            =   0.0000000000000E+00
(PID.TID 0000.0001) %MON trAdv_CFL_u_max              =   1.7906515122830E-03
(PID.TID 0000.0001) %MON trAdv_CFL_v_max              =   4.6126123073070E-03
(PID.TID 0000.0001) %MON trAdv_CFL_w_max              =   4.0089850255055E-09
(PID.TID 0000.0001) %MON advcfl_uvel_max              =   1.7907091301259E-03
(PID.TID 0000.0001) %MON advcfl_vvel_max              =   4.6125527548942E-03
(PID.TID 0000.0001) %MON advcfl_wvel_max              =   8.0134776811581E-09
(PID.TID 0000.0001) %MON advcfl_W_hf_max              =   0.0000000000000E+00
(PID.TID 0000.0001) %MON pe_b_mean                    =   2.5352532397366E-07
(PID.TID 0000.0001) %MON ke_max                       =   2.9547097588704E-03
(PID.TID 0000.0001) %MON ke_mean                      =   1.2828706465036E-04
(PID.TID 0000.0001) %MON ke_vol                       =   7.2000000000000E+15
(PID.TID 0000.0001) %MON vort_r_min                   =  -1.4846937027603E-06
(PID.TID 0000.0001) %MON vort_r_max                   =   2.1205258130066E-06
(PID.TID 0000.0001) %MON vort_a_mean                  =   1.0600000000000E-04
(PID.TID 0000.0001) %MON vort_a_sd                    =   3.5360137752030E-06
(PID.TID 0000.0001) %MON vort_p_mean                  =   1.1130000000000E-04
(PID.TID 0000.0001) %MON vort_p_sd                    =   4.1152617073982E-05
(PID.TID 0000.0001) %MON surfExpan_theta_mean         =   2.3661393831907E-20
(PID.TID 0000.0001) %MON surfExpan_salt_mean          =   3.5486877633970E-20
(PID.TID 0000.0001) // =======================================================
(PID.TID 0000.0001) // End MONITOR dynamic field statistics
(PID.TID 0000.0001) // =======================================================
 cg2d: Sum(rhs),rhsMax =  -3.07542866107703E-04  1.29665777527714E-01
 cg2d: Sum(rhs),rhsMax =  -3.07253417706456E-04  1.29665450210731E-01
 cg2d: Sum(rhs),rhsMax =  -3.06964020247919E-04  1.29665134566570E-01
 cg2d: Sum(rhs),rhsMax =  -3.06674669372038E-04  1.29664830588473E-01
 cg2d: Sum(rhs),rhsMax =  -3.06385360702848E-04  1.29664538269657E-01
 cg2d: Sum(rhs),rhsMax =  -3.06096089996953E-04  1.29664257603311E-01
 cg2d: Sum(rhs),rhsMax =  -3.05806852886351E-04  1.29663988582597E-01
 cg2d: Sum(rhs),rhsMax =  -3.05517644900825E-04  1.29663731200643E-01
 cg2d: Sum(rhs),rhsMax =  -3.05228461929952E-04  1.29663485450555E-01
 cg2d: Sum(rhs),rhsMax =  -3.04939299506589E-04  1.29663251325409E-01
 cg2d: Sum(rhs),rhsMax =  -3.04650153214722E-04  1.29663028818253E-01
 cg2d: Sum(rhs),rhsMax =  -3.04361018830256E-04  1.29662817922107E-01
 cg2d: Sum(rhs),rhsMax =  -3.04071891954323E-04  1.29662618629964E-01
 cg2d: Sum(rhs),rhsMax =  -3.03782768148839E-04  1.29662430934788E-01
 cg2d: Sum(rhs),rhsMax =  -3.03493643202581E-04  1.29662254829515E-01
 cg2d: Sum(rhs),rhsMax =  -3.03204512698175E-04  1.29662090307053E-01
 cg2d: Sum(rhs),rhsMax =  -3.02915372276352E-04  1.29661937360284E-01
 cg2d: Sum(rhs),rhsMax =  -3.02626217637551E-04  1.29661795982061E-01
 cg2d: Sum(rhs),rhsMax =  -3.02337044445045E-04  1.29661666165208E-01
 cg2d: Sum(rhs),rhsMax =  -3.02047848442194E-04  1.29661547902522E-01
 cg2d: Sum(rhs),rhsMax =  -3.01758625087068E-04  1.29661441186774E-01
 cg2d: Sum(rhs),rhsMax =  -3.01469370169169E-04  1.29661346010705E-01
 cg2d: Sum(rhs),rhsMax =  -3.01180079361993E-04  1.29661262367029E-01
 cg2d: Sum(rhs),rhsMax =  -3.00890748390040E-04  1.29661190248432E-01
 cg2d: Sum(rhs),rhsMax =  -3.00601372858104E-04  1.29661129647574E-01
 cg2d: Sum(rhs),rhsMax =  -3.00311948517817E-04  1.29661080557085E-01
 cg2d: Sum(rhs),rhsMax =  -3.00022471071263E-04  1.29661042969569E-01
 cg2d: Sum(rhs),rhsMax =  -2.99732936220418E-04  1.29661016877601E-01
 cg2d: Sum(rhs),rhsMax =  -2.99443339650925E-04  1.29661002273730E-01
 cg2d: Sum(rhs),rhsMax =  -2.99153677118205E-04  1.29660999150476E-01
 cg2d: Sum(rhs),rhsMax =  -2.98863944444571E-04  1.29661007500333E-01
 cg2d: Sum(rhs),rhsMax =  -2.98574137327068E-04  1.29661027315765E-01
 cg2d: Sum(rhs),rhsMax =  -2.98284251384341E-04  1.29661058589213E-01
 cg2d: Sum(rhs),rhsMax =  -2.97994282533087E-04  1.29661101313084E-01
 cg2d: Sum(rhs),rhsMax =  -2.97704226575067E-04  1.29661155479764E-01
 cg2d: Sum(rhs),rhsMax =  -2.97414079254758E-04  1.29661221081607E-01
 cg2d: Sum(rhs),rhsMax =  -2.97123836412999E-04  1.29661298110942E-01
 cg2d: Sum(rhs),rhsMax =  -2.96833493854764E-04  1.29661386560070E-01
 cg2d: Sum(rhs),rhsMax =  -2.96543047424902E-04  1.29661486421263E-01
 cg2d: Sum(rhs),rhsMax =  -2.96252492886170E-04  1.29661597686770E-01
 cg2d: Sum(rhs),rhsMax =  -2.95961826360778E-04  1.29661720348807E-01
 cg2d: Sum(rhs),rhsMax =  -2.95671043477682E-04  1.29661854399568E-01
 cg2d: Sum(rhs),rhsMax =  -2.95380140297735E-04  1.29661999831215E-01
 cg2d: Sum(rhs),rhsMax =  -2.95089112650793E-04  1.29662156635887E-01
 cg2d: Sum(rhs),rhsMax =  -2.94797956498068E-04  1.29662324805693E-01
 cg2d: Sum(rhs),rhsMax =  -2.94506667766798E-04  1.29662504332714E-01
 cg2d: Sum(rhs),rhsMax =  -2.94215242431916E-04  1.29662695209008E-01
 cg2d: Sum(rhs),rhsMax =  -2.93923676627445E-04  1.29662897426601E-01
 cg2d: Sum(rhs),rhsMax =  -2.93631966307315E-04  1.29663110977497E-01
 cg2d: Sum(rhs),rhsMax =  -2.93340107450988E-04  1.29663335853666E-01
 cg2d: Sum(rhs),rhsMax =  -2.93048096114240E-04  1.29663572047058E-01
 cg2d: Sum(rhs),rhsMax =  -2.92755928444074E-04  1.29663819549592E-01
 cg2d: Sum(rhs),rhsMax =  -2.92463600493194E-04  1.29664078353159E-01
 cg2d: Sum(rhs),rhsMax =  -2.92171108412098E-04  1.29664348449628E-01
 cg2d: Sum(rhs),rhsMax =  -2.91878448317247E-04  1.29664629830834E-01
 cg2d: Sum(rhs),rhsMax =  -2.91585616410187E-04  1.29664922488591E-01
 cg2d: Sum(rhs),rhsMax =  -2.91292608935330E-04  1.29665226414683E-01
 cg2d: Sum(rhs),rhsMax =  -2.90999421948297E-04  1.29665541600869E-01
 cg2d: Sum(rhs),rhsMax =  -2.90706051881158E-04  1.29665868038878E-01
 cg2d: Sum(rhs),rhsMax =  -2.90412494852953E-04  1.29666205720416E-01
 cg2d: Sum(rhs),rhsMax =  -2.90118747322106E-04  1.29666554637158E-01
 cg2d: Sum(rhs),rhsMax =  -2.89824805465497E-04  1.29666914780756E-01
 cg2d: Sum(rhs),rhsMax =  -2.89530665683944E-04  1.29667286142834E-01
 cg2d: Sum(rhs),rhsMax =  -2.89236324356616E-04  1.29667668714986E-01
 cg2d: Sum(rhs),rhsMax =  -2.88941777856935E-04  1.29668062488785E-01
 cg2d: Sum(rhs),rhsMax =  -2.88647022450959E-04  1.29668467455772E-01
 cg2d: Sum(rhs),rhsMax =  -2.88352054928703E-04  1.29668883607465E-01
 cg2d: Sum(rhs),rhsMax =  -2.88056871604987E-04  1.29669310935353E-01
 cg2d: Sum(rhs),rhsMax =  -2.87761468896029E-04  1.29669749430899E-01
 cg2d: Sum(rhs),rhsMax =  -2.87465843519939E-04  1.29670199085540E-01
 cg2d: Sum(rhs),rhsMax =  -2.87211885408950E-04  1.29670659878029E-01
 cg2d: Sum(rhs),rhsMax =  -2.86957808270492E-04  1.29671131813775E-01
(PID.TID 0000.0001)      cg2d_init_res =   1.27465166644206E-03
(PID.TID 0000.0001)      cg2d_iters(min,last) =      -1      76
(PID.TID 0000.0001)      cg2d_last_res =   8.28437624498952E-08
(PID.TID 0000.0001) // =======================================================
(PID.TID 0000.0001) // Begin MONITOR dynamic field statistics
(PID.TID 0000.0001) // =======================================================
(PID.TID 0000.0001) %MON time_tsnumber                =                  8208
(PID.TID 0000.0001) %MON time_secondsf                =   9.8496000000000E+06
(PID.TID 0000.0001) %MON dynstat_eta_max              =   3.8344630778543E-02
(PID.TID 0000.0001) %MON dynstat_eta_min              =  -2.4046970676873E-02
(PID.TID 0000.0001) %MON dynstat_eta_mean             =   1.8588661188723E-07
(PID.TID 0000.0001) %MON dynstat_eta_sd               =   1.6400711631253E-02
(PID.TID 0000.0001) %MON dynstat_eta_del2             =   1.7745791055414E-05
(PID.TID 0000.0001) %MON dynstat_uvel_max             =   2.9920567828793E-02
(PID.TID 0000.0001) %MON dynstat_uvel_min             =  -1.5996618856904E-02
(PID.TID 0000.0001) %MON dynstat_uvel_mean            =  -1.7691292060859E-07
(PID.TID 0000.0001) %MON dynstat_uvel_sd              =   7.1215496956230E-03
(PID.TID 0000.0001) %MON dynstat_uvel_del2            =   8.4149477283217E-06
(PID.TID 0000.0001) %MON dynstat_vvel_max             =   7.6825096841286E-02
(PID.TID 0000.0001) %MON dynstat_vvel_min             =  -3.3677030230212E-02
(PID.TID 0000.0001) %MON dynstat_vvel_mean            =  -7.7861230710979E-09
(PID.TID 0000.0001) %MON dynstat_vvel_sd              =   1.4575626370648E-02
(PID.TID 0000.0001) %MON dynstat_vvel_del2            =   7.2263612273640E-05
(PID.TID 0000.0001) %MON dynstat_wvel_max             =   1.6108251465484E-08
(PID.TID 0000.0001) %MON dynstat_wvel_min             =  -1.1792962052859E-08
(PID.TID 0000.0001) %MON dynstat_wvel_mean            =  -4.0783182460776E-22
(PID.TID 0000.0001) %MON dynstat_wvel_sd              =   6.5162547018409E-09
(PID.TID 0000.0001) %MON dynstat_wvel_del2            =   2.5595917105626E-12
(PID.TID 0000.0001) %MON dynstat_theta_max            =   2.0000000000000E+01
(PID.TID 0000.0001) %MON dynstat_theta_min            =   2.0000000000000E+01
(PID.TID 0000.0001) %MON dynstat_theta_mean           =   2.0000000000000E+01
(PID.TID 0000.0001) %MON dynstat_theta_sd             =   0.0000000000000E+00
(PID.TID 0000.0001) %MON dynstat_theta_del2           =   0.0000000000000E+00
(PID.TID 0000.0001) %MON dynstat_salt_max             =   3.0000000000000E+01
(PID.TID 0000.0001) %MON dynstat_salt_min             =   3.0000000000000E+01
(PID.TID 0000.0001) %MON dynstat_salt_mean            =   3.0000000000000E+01
(PID.TID 0000.0001) %MON dynstat_salt_sd              =   0.0000000000000E+00
(PID.TID 0000.0001) %MON dynstat_salt_del2            =   0.0000000000000E+00
(PID.TID 0000.0001) %MON trAdv_CFL_u_max              =   1.7951661972784E-03
(PID.TID 0000.0001) %MON trAdv_CFL_v_max              =   4.6095258982073E-03
(PID.TID 0000.0001) %MON trAdv_CFL_w_max              =   3.8680948336842E-09
(PID.TID 0000.0001) %MON advcfl_uvel_max              =   1.7952340697276E-03
(PID.TID 0000.0001) %MON advcfl_vvel_max              =   4.6095058104771E-03
(PID.TID 0000.0001) %MON advcfl_wvel_max              =   7.7319607034326E-09
(PID.TID 0000.0001) %MON advcfl_W_hf_max              =   0.0000000000000E+00
(PID.TID 0000.0001) %MON pe_b_mean                    =   2.6387265854718E-07
(PID.TID 0000.0001) %MON ke_max                       =   2.9509975527875E-03
(PID.TID 0000.0001) %MON ke_mean                      =   1.2938963247936E-04
(PID.TID 0000.0001) %MON ke_vol                       =   7.2000000000000E+15
(PID.TID 0000.0001) %MON vort_r_min                   =  -1.4791521673713E-06
(PID.TID 0000.0001) %MON vort_r_max                   =   2.1311241901929E-06
(PID.TID 0000.0001) %MON vort_a_mean                  =   1.0600000000000E-04
(PID.TID 0000.0001) %MON vort_a_sd                    =   3.5360460547892E-06
(PID.TID 0000.0001) %MON vort_p_mean                  =   1.1130000000000E-04
(PID.TID 0000.0001) %MON vort_p_sd                    =   4.1152700038278E-05
(PID.TID 0000.0001) %MON surfExpan_theta_mean         =  -8.1747941749200E-21
(PID.TID 0000.0001) %MON surfExpan_salt_mean          =  -1.2264125517605E-20
(PID.TID 0000.0001) // =======================================================
(PID.TID 0000.0001) // End MONITOR dynamic field statistics
(PID.TID 0000.0001) // =======================================================
 cg2d: Sum(rhs),rhsMax =  -2.86703627520754E-04  1.29671614892239E-01
 cg2d: Sum(rhs),rhsMax =  -2.86449312102656E-04  1.29672109096737E-01
 cg2d: Sum(rhs),rhsMax =  -2.86194850095983E-04  1.29672614416191E-01
 cg2d: Sum(rhs),rhsMax =  -2.85940239279551E-04  1.29673130842004E-01
 cg2d: Sum(rhs),rhsMax =  -2.85685481359236E-04  1.29673658365743E-01
 cg2d: Sum(rhs),rhsMax =  -2.85430578249811E-04  1.29674196978999E-01
 cg2d: Sum(rhs),rhsMax =  -2.85175529977091E-04  1.29674746673205E-01
 cg2d: Sum(rhs),rhsMax =  -2.84920334020417E-04  1.29675307439588E-01
 cg2d: Sum(rhs),rhsMax =  -2.84664987104851E-04  1.29675879269232E-01
 cg2d: Sum(rhs),rhsMax =  -2.84409485652098E-04  1.29676462153168E-01
 cg2d: Sum(rhs),rhsMax =  -2.84153826648292E-04  1.29677056082426E-01
 cg2d: Sum(rhs),rhsMax =  -2.83898007875301E-04  1.29677661048051E-01
 cg2d: Sum(rhs),rhsMax =  -2.83642027050631E-04  1.29678277041098E-01
 cg2d: Sum(rhs),rhsMax =  -2.83385882307523E-04  1.29678904052607E-01
 cg2d: Sum(rhs),rhsMax =  -2.83129571521152E-04  1.29679542073584E-01
 cg2d: Sum(rhs),rhsMax =  -2.82873092641315E-04  1.29680191094998E-01
 cg2d: Sum(rhs),rhsMax =  -2.82616443243575E-04  1.29680851107780E-01
 cg2d: Sum(rhs),rhsMax =  -2.82359621092102E-04  1.29681522102830E-01
 cg2d: Sum(rhs),rhsMax =  -2.82102624199608E-04  1.29682204071025E-01
 cg2d: Sum(rhs),rhsMax =  -2.81845450238284E-04  1.29682897003217E-01
 cg2d: Sum(rhs),rhsMax =  -2.81588097119577E-04  1.29683600890238E-01
 cg2d: Sum(rhs),rhsMax =  -2.81330562927144E-04  1.29684315722893E-01
 cg2d: Sum(rhs),rhsMax =  -2.81072845559832E-04  1.29685041491964E-01
 cg2d: Sum(rhs),rhsMax =  -2.80814943069010E-04  1.29685778188204E-01
 cg2d: Sum(rhs),rhsMax =  -2.80556853407938E-04  1.29686525802340E-01
 cg2d: Sum(rhs),rhsMax =  -2.80298574602827E-04  1.29687284325073E-01
 cg2d: Sum(rhs),rhsMax =  -2.80040104683034E-04  1.29688053747076E-01
 cg2d: Sum(rhs),rhsMax =  -2.79781441775612E-04  1.29688834058999E-01
 cg2d: Sum(rhs),rhsMax =  -2.79522583921422E-04  1.29689625251463E-01
 cg2d: Sum(rhs),rhsMax =  -2.79263529396155E-04  1.29690427315065E-01
 cg2d: Sum(rhs),rhsMax =  -2.79004276287707E-04  1.29691240240377E-01
 cg2d: Sum(rhs),rhsMax =  -2.78744822809906E-04  1.29692064017943E-01
 cg2d: Sum(rhs),rhsMax =  -2.78485167194372E-04  1.29692898638284E-01
 cg2d: Sum(rhs),rhsMax =  -2.78225307532028E-04  1.29693744091895E-01
 cg2d: Sum(rhs),rhsMax =  -2.77965242379681E-04  1.29694600369242E-01
 cg2d: Sum(rhs),rhsMax =  -2.77704969726044E-04  1.29695467460769E-01
 cg2d: Sum(rhs),rhsMax =  -2.77444487959222E-04  1.29696345356893E-01
 cg2d: Sum(rhs),rhsMax =  -2.77183795555136E-04  1.29697234048004E-01
 cg2d: Sum(rhs),rhsMax =  -2.76922890729040E-04  1.29698133524469E-01
 cg2d: Sum(rhs),rhsMax =  -2.76661771802388E-04  1.29699043776628E-01
 cg2d: Sum(rhs),rhsMax =  -2.76400437346053E-04  1.29699964794796E-01
 cg2d: Sum(rhs),rhsMax =  -2.76138885765049E-04  1.29700896569261E-01
 cg2d: Sum(rhs),rhsMax =  -2.75877115509004E-04  1.29701839090286E-01
 cg2d: Sum(rhs),rhsMax =  -2.75615125028157E-04  1.29702792348111E-01
 cg2d: Sum(rhs),rhsMax =  -2.75352912818226E-04  1.29703756332948E-01
 cg2d: Sum(rhs),rhsMax =  -2.75090477496403E-04  1.29704731034984E-01
 cg2d: Sum(rhs),rhsMax =  -2.74827817574460E-04  1.29705716444380E-01
 cg2d: Sum(rhs),rhsMax =  -2.74564931507511E-04  1.29706712551275E-01
 cg2d: Sum(rhs),rhsMax =  -2.74301818001772E-04  1.29707719345779E-01
 cg2d: Sum(rhs),rhsMax =  -2.74038475729948E-04  1.29708736817978E-01
 cg2d: Sum(rhs),rhsMax =  -2.73774903186463E-04  1.29709764957932E-01
 cg2d: Sum(rhs),rhsMax =  -2.73511099177395E-04  1.29710803755677E-01
 cg2d: Sum(rhs),rhsMax =  -2.73247062323466E-04  1.29711853201224E-01
 cg2d: Sum(rhs),rhsMax =  -2.72982791315747E-04  1.29712913284558E-01
 cg2d: Sum(rhs),rhsMax =  -2.72718284990210E-04  1.29713983995636E-01
 cg2d: Sum(rhs),rhsMax =  -2.72453541992596E-04  1.29715065324397E-01
 cg2d: Sum(rhs),rhsMax =  -2.72188561173156E-04  1.29716157260748E-01
 cg2d: Sum(rhs),rhsMax =  -2.71923341230857E-04  1.29717259794575E-01
 cg2d: Sum(rhs),rhsMax =  -2.71657881064587E-04  1.29718372915737E-01
 cg2d: Sum(rhs),rhsMax =  -2.71392179564334E-04  1.29719496614068E-01
 cg2d: Sum(rhs),rhsMax =  -2.71126235546638E-04  1.29720630879378E-01
 cg2d: Sum(rhs),rhsMax =  -2.70860047932281E-04  1.29721775701452E-01
 cg2d: Sum(rhs),rhsMax =  -2.70593615570599E-04  1.29722931070049E-01
 cg2d: Sum(rhs),rhsMax =  -2.70326937376156E-04  1.29724096974904E-01
 cg2d: Sum(rhs),rhsMax =  -2.70060012355111E-04  1.29725273405726E-01
 cg2d: Sum(rhs),rhsMax =  -2.69792839409902E-04  1.29726460352203E-01
 cg2d: Sum(rhs),rhsMax =  -2.69525417607376E-04  1.29727657803992E-01
 cg2d: Sum(rhs),rhsMax =  -2.69257745972843E-04  1.29728865750730E-01
 cg2d: Sum(rhs),rhsMax =  -2.68989823458213E-04  1.29730084182027E-01
 cg2d: Sum(rhs),rhsMax =  -2.68721649140717E-04  1.29731313087469E-01
 cg2d: Sum(rhs),rhsMax =  -2.68453222117161E-04  1.29732552456618E-01
 cg2d: Sum(rhs),rhsMax =  -2.68184541404808E-04  1.29733802279010E-01
(PID.TID 0000.0001)      cg2d_init_res =   1.27335420279474E-03
(PID.TID 0000.0001)      cg2d_iters(min,last) =      -1      76
(PID.TID 0000.0001)      cg2d_last_res =   8.82610787561777E-08
(PID.TID 0000.0001) // =======================================================
(PID.TID 0000.0001) // Begin MONITOR dynamic field statistics
(PID.TID 0000.0001) // =======================================================
(PID.TID 0000.0001) %MON time_tsnumber                =                  8280
(PID.TID 0000.0001) %MON time_secondsf                =   9.9360000000000E+06
(PID.TID 0000.0001) %MON dynstat_eta_max              =   3.8510512318115E-02
(PID.TID 0000.0001) %MON dynstat_eta_min              =  -2.4378174508050E-02
(PID.TID 0000.0001) %MON dynstat_eta_mean             =   1.7379023960455E-07
(PID.TID 0000.0001) %MON dynstat_eta_sd               =   1.6736445951226E-02
(PID.TID 0000.0001) %MON dynstat_eta_del2             =   1.7724864598029E-05
(PID.TID 0000.0001) %MON dynstat_uvel_max             =   3.0008040469316E-02
(PID.TID 0000.0001) %MON dynstat_uvel_min             =  -1.6078736729758E-02
(PID.TID 0000.0001) %MON dynstat_uvel_mean            =  -2.0100641951257E-07
(PID.TID 0000.0001) %MON dynstat_uvel_sd              =   7.2273552049559E-03
(PID.TID 0000.0001) %MON dynstat_uvel_del2            =   8.4869197756693E-06
(PID.TID 0000.0001) %MON dynstat_vvel_max             =   7.7084710778401E-02
(PID.TID 0000.0001) %MON dynstat_vvel_min             =  -3.3326864654647E-02
(PID.TID 0000.0001) %MON dynstat_vvel_mean            =  -6.9310488156857E-09
(PID.TID 0000.0001) %MON dynstat_vvel_sd              =   1.4606504542543E-02
(PID.TID 0000.0001) %MON dynstat_vvel_del2            =   7.2304131668296E-05
(PID.TID 0000.0001) %MON dynstat_wvel_max             =   1.5393500006321E-08
(PID.TID 0000.0001) %MON dynstat_wvel_min             =  -1.2373295371071E-08
(PID.TID 0000.0001) %MON dynstat_wvel_mean            =   3.5840278340200E-21
(PID.TID 0000.0001) %MON dynstat_wvel_sd              =   6.5085095974150E-09
(PID.TID 0000.0001) %MON dynstat_wvel_del2            =   2.5442018562510E-12
(PID.TID 0000.0001) %MON dynstat_theta_max            =   2.0000000000000E+01
(PID.TID 0000.0001) %MON dynstat_theta_min            =   2.0000000000000E+01
(PID.TID 0000.0001) %MON dynstat_theta_mean           =   2.0000000000000E+01
(PID.TID 0000.0001) %MON dynstat_theta_sd             =   0.0000000000000E+00
(PID.TID 0000.0001) %MON dynstat_theta_del2           =   0.0000000000000E+00
(PID.TID 0000.0001) %MON dynstat_salt_max             =   3.0000000000000E+01
(PID.TID 0000.0001) %MON dynstat_salt_min             =   3.0000000000000E+01
(PID.TID 0000.0001) %MON dynstat_salt_mean            =   3.0000000000000E+01
(PID.TID 0000.0001) %MON dynstat_salt_sd              =   0.0000000000000E+00
(PID.TID 0000.0001) %MON dynstat_salt_del2            =   0.0000000000000E+00
(PID.TID 0000.0001) %MON trAdv_CFL_u_max              =   1.8004047331726E-03
(PID.TID 0000.0001) %MON trAdv_CFL_v_max              =   4.6248072305029E-03
(PID.TID 0000.0001) %MON trAdv_CFL_w_max              =   3.6964208804187E-09
(PID.TID 0000.0001) %MON advcfl_uvel_max              =   1.8004824281590E-03
(PID.TID 0000.0001) %MON advcfl_vvel_max              =   4.6250826467040E-03
(PID.TID 0000.0001) %MON advcfl_wvel_max              =   7.3888800030341E-09
(PID.TID 0000.0001) %MON advcfl_W_hf_max              =   0.0000000000000E+00
(PID.TID 0000.0001) %MON pe_b_mean                    =   2.7478655926946E-07
(PID.TID 0000.0001) %MON ke_max                       =   2.9703809008093E-03
(PID.TID 0000.0001) %MON ke_mean                      =   1.3057911380644E-04
(PID.TID 0000.0001) %MON ke_vol                       =   7.2000000000000E+15
(PID.TID 0000.0001) %MON vort_r_min                   =  -1.4736304274642E-06
(PID.TID 0000.0001) %MON vort_r_max                   =   2.1431069464223E-06
(PID.TID 0000.0001) %MON vort_a_mean                  =   1.0600000000000E-04
(PID.TID 0000.0001) %MON vort_a_sd                    =   3.5360911285135E-06
(PID.TID 0000.0001) %MON vort_p_mean                  =   1.1130000000000E-04
(PID.TID 0000.0001) %MON vort_p_sd                    =   4.1152771521683E-05
(PID.TID 0000.0001) %MON surfExpan_theta_mean         =   7.1669761483564E-20
(PID.TID 0000.0001) %MON surfExpan_salt_mean          =   1.0750622120920E-19
(PID.TID 0000.0001) // =======================================================
(PID.TID 0000.0001) // End MONITOR dynamic field statistics
(PID.TID 0000.0001) // =======================================================
 cg2d: Sum(rhs),rhsMax =  -2.67915606171961E-04  1.29735062544157E-01
 cg2d: Sum(rhs),rhsMax =  -2.67646415608730E-04  1.29736333241545E-01
 cg2d: Sum(rhs),rhsMax =  -2.67376968624771E-04  1.29737614360640E-01
 cg2d: Sum(rhs),rhsMax =  -2.67107264677485E-04  1.29738905890877E-01
 cg2d: Sum(rhs),rhsMax =  -2.66837302873644E-04  1.29740207821671E-01
 cg2d: Sum(rhs),rhsMax =  -2.66567082312289E-04  1.29741520142411E-01
 cg2d: Sum(rhs),rhsMax =  -2.66296602320930E-04  1.29742842842460E-01
 cg2d: Sum(rhs),rhsMax =  -2.66025862103226E-04  1.29744175911162E-01
 cg2d: Sum(rhs),rhsMax =  -2.65754860909539E-04  1.29745519337829E-01
 cg2d: Sum(rhs),rhsMax =  -2.65483597986343E-04  1.29746873111755E-01
 cg2d: Sum(rhs),rhsMax =  -2.65212072624207E-04  1.29748237222205E-01
 cg2d: Sum(rhs),rhsMax =  -2.64940284242956E-04  1.29749611658423E-01
 cg2d: Sum(rhs),rhsMax =  -2.64668232083394E-04  1.29750996409628E-01
 cg2d: Sum(rhs),rhsMax =  -2.64395915560509E-04  1.29752391465012E-01
 cg2d: Sum(rhs),rhsMax =  -2.64123334019700E-04  1.29753796813748E-01
 cg2d: Sum(rhs),rhsMax =  -2.63850486724153E-04  1.29755212444979E-01
 cg2d: Sum(rhs),rhsMax =  -2.63577373189642E-04  1.29756638347827E-01
 cg2d: Sum(rhs),rhsMax =  -2.63303992850621E-04  1.29758074511390E-01
 cg2d: Sum(rhs),rhsMax =  -2.63030345100245E-04  1.29759520924743E-01
 cg2d: Sum(rhs),rhsMax =  -2.62756429469001E-04  1.29760977576932E-01
 cg2d: Sum(rhs),rhsMax =  -2.62482245285983E-04  1.29762444456984E-01
 cg2d: Sum(rhs),rhsMax =  -2.62207792082492E-04  1.29763921553900E-01
 cg2d: Sum(rhs),rhsMax =  -2.61933069407214E-04  1.29765408856657E-01
 cg2d: Sum(rhs),rhsMax =  -2.61658076733349E-04  1.29766906354207E-01
 cg2d: Sum(rhs),rhsMax =  -2.61382813659387E-04  1.29768414035481E-01
 cg2d: Sum(rhs),rhsMax =  -2.61107279635917E-04  1.29769931889384E-01
 cg2d: Sum(rhs),rhsMax =  -2.60831474250500E-04  1.29771459904797E-01
 cg2d: Sum(rhs),rhsMax =  -2.60555397092918E-04  1.29772998070578E-01
 cg2d: Sum(rhs),rhsMax =  -2.60279047698728E-04  1.29774546375559E-01
 cg2d: Sum(rhs),rhsMax =  -2.60002425862729E-04  1.29776104808553E-01
 cg2d: Sum(rhs),rhsMax =  -2.59725530961815E-04  1.29777673358344E-01
 cg2d: Sum(rhs),rhsMax =  -2.59448362802047E-04  1.29779252013695E-01
 cg2d: Sum(rhs),rhsMax =  -2.59170920994837E-04  1.29780840763346E-01
 cg2d: Sum(rhs),rhsMax =  -2.58893205176085E-04  1.29782439596010E-01
 cg2d: Sum(rhs),rhsMax =  -2.58615215074586E-04  1.29784048500381E-01
 cg2d: Sum(rhs),rhsMax =  -2.58336950345317E-04  1.29785667465125E-01
 cg2d: Sum(rhs),rhsMax =  -2.58058410739935E-04  1.29787296478888E-01
 cg2d: Sum(rhs),rhsMax =  -2.57779595907866E-04  1.29788935530289E-01
 cg2d: Sum(rhs),rhsMax =  -2.57500505640751E-04  1.29790584607926E-01
 cg2d: Sum(rhs),rhsMax =  -2.57221139758033E-04  1.29792243700374E-01
 cg2d: Sum(rhs),rhsMax =  -2.56941497808852E-04  1.29793912796182E-01
 cg2d: Sum(rhs),rhsMax =  -2.56661579889928E-04  1.29795591883877E-01
 cg2d: Sum(rhs),rhsMax =  -2.56381385553233E-04  1.29797280951965E-01
 cg2d: Sum(rhs),rhsMax =  -2.56100914635436E-04  1.29798979988923E-01
 cg2d: Sum(rhs),rhsMax =  -2.55820167037205E-04  1.29800688983209E-01
 cg2d: Sum(rhs),rhsMax =  -2.55539142557716E-04  1.29802407923259E-01
 cg2d: Sum(rhs),rhsMax =  -2.55257840949254E-04  1.29804136797479E-01
 cg2d: Sum(rhs),rhsMax =  -2.54976262283969E-04  1.29805875594260E-01
 cg2d: Sum(rhs),rhsMax =  -2.54694406150267E-04  1.29807624301964E-01
 cg2d: Sum(rhs),rhsMax =  -2.54412272652572E-04  1.29809382908932E-01
 cg2d: Sum(rhs),rhsMax =  -2.54129861633186E-04  1.29811151403483E-01
 cg2d: Sum(rhs),rhsMax =  -2.53847172955910E-04  1.29812929773909E-01
 cg2d: Sum(rhs),rhsMax =  -2.53564206614557E-04  1.29814718008485E-01
 cg2d: Sum(rhs),rhsMax =  -2.53280962462655E-04  1.29816516095457E-01
 cg2d: Sum(rhs),rhsMax =  -2.52997440509381E-04  1.29818324023050E-01
 cg2d: Sum(rhs),rhsMax =  -2.52713640599680E-04  1.29820141779469E-01
 cg2d: Sum(rhs),rhsMax =  -2.52429562819909E-04  1.29821969352891E-01
 cg2d: Sum(rhs),rhsMax =  -2.52145207089718E-04  1.29823806731475E-01
 cg2d: Sum(rhs),rhsMax =  -2.51860573471058E-04  1.29825653903353E-01
 cg2d: Sum(rhs),rhsMax =  -2.51575661880060E-04  1.29827510856636E-01
 cg2d: Sum(rhs),rhsMax =  -2.51290472261110E-04  1.29829377579413E-01
 cg2d: Sum(rhs),rhsMax =  -2.51005004863988E-04  1.29831254059749E-01
 cg2d: Sum(rhs),rhsMax =  -2.50719259543380E-04  1.29833140285686E-01
 cg2d: Sum(rhs),rhsMax =  -2.50433236383554E-04  1.29835036245245E-01
 cg2d: Sum(rhs),rhsMax =  -2.50146935544564E-04  1.29836941926423E-01
 cg2d: Sum(rhs),rhsMax =  -2.49860356838365E-04  1.29838857317193E-01
 cg2d: Sum(rhs),rhsMax =  -2.49573500714676E-04  1.29840782405509E-01
 cg2d: Sum(rhs),rhsMax =  -2.49286366924930E-04  1.29842717179300E-01
 cg2d: Sum(rhs),rhsMax =  -2.48998955755088E-04  1.29844661626471E-01
 cg2d: Sum(rhs),rhsMax =  -2.48711267326918E-04  1.29846615734907E-01
 cg2d: Sum(rhs),rhsMax =  -2.48423301634772E-04  1.29848579492472E-01
 cg2d: Sum(rhs),rhsMax =  -2.48135058963739E-04  1.29850552887003E-01
(PID.TID 0000.0001)      cg2d_init_res =   1.27071381245221E-03
(PID.TID 0000.0001)      cg2d_iters(min,last) =      -1      76
(PID.TID 0000.0001)      cg2d_last_res =   9.22664205289155E-08
(PID.TID 0000.0001) // =======================================================
(PID.TID 0000.0001) // Begin MONITOR dynamic field statistics
(PID.TID 0000.0001) // =======================================================
(PID.TID 0000.0001) %MON time_tsnumber                =                  8352
(PID.TID 0000.0001) %MON time_secondsf                =   1.0022400000000E+07
(PID.TID 0000.0001) %MON dynstat_eta_max              =   3.8846747327748E-02
(PID.TID 0000.0001) %MON dynstat_eta_min              =  -2.4673873976903E-02
(PID.TID 0000.0001) %MON dynstat_eta_mean             =   1.6091750821588E-07
(PID.TID 0000.0001) %MON dynstat_eta_sd               =   1.7078481381966E-02
(PID.TID 0000.0001) %MON dynstat_eta_del2             =   1.7708211479011E-05
(PID.TID 0000.0001) %MON dynstat_uvel_max             =   3.0106965747561E-02
(PID.TID 0000.0001) %MON dynstat_uvel_min             =  -1.6165623961928E-02
(PID.TID 0000.0001) %MON dynstat_uvel_mean            =  -2.2262622029478E-07
(PID.TID 0000.0001) %MON dynstat_uvel_sd              =   7.3280335993605E-03
(PID.TID 0000.0001) %MON dynstat_uvel_del2            =   8.5553376444020E-06
(PID.TID 0000.0001) %MON dynstat_vvel_max             =   7.7452705390347E-02
(PID.TID 0000.0001) %MON dynstat_vvel_min             =  -3.2971700812843E-02
(PID.TID 0000.0001) %MON dynstat_vvel_mean            =  -5.9574707056405E-09
(PID.TID 0000.0001) %MON dynstat_vvel_sd              =   1.4644103752688E-02
(PID.TID 0000.0001) %MON dynstat_vvel_del2            =   7.2372078351468E-05
(PID.TID 0000.0001) %MON dynstat_wvel_max             =   1.4714446435100E-08
(PID.TID 0000.0001) %MON dynstat_wvel_min             =  -1.2979543629917E-08
(PID.TID 0000.0001) %MON dynstat_wvel_mean            =   4.1986279736900E-21
(PID.TID 0000.0001) %MON dynstat_wvel_sd              =   6.4998071512934E-09
(PID.TID 0000.0001) %MON dynstat_wvel_del2            =   2.5302525680515E-12
(PID.TID 0000.0001) %MON dynstat_theta_max            =   2.0000000000000E+01
(PID.TID 0000.0001) %MON dynstat_theta_min            =   2.0000000000000E+01
(PID.TID 0000.0001) %MON dynstat_theta_mean           =   2.0000000000000E+01
(PID.TID 0000.0001) %MON dynstat_theta_sd             =   0.0000000000000E+00
(PID.TID 0000.0001) %MON dynstat_theta_del2           =   0.0000000000000E+00
(PID.TID 0000.0001) %MON dynstat_salt_max             =   3.0000000000000E+01
(PID.TID 0000.0001) %MON dynstat_salt_min             =   3.0000000000000E+01
(PID.TID 0000.0001) %MON dynstat_salt_mean            =   3.0000000000000E+01
(PID.TID 0000.0001) %MON dynstat_salt_sd              =   0.0000000000000E+00
(PID.TID 0000.0001) %MON dynstat_salt_del2            =   0.0000000000000E+00
(PID.TID 0000.0001) %MON trAdv_CFL_u_max              =   1.8063309995220E-03
(PID.TID 0000.0001) %MON trAdv_CFL_v_max              =   4.6468233193171E-03
(PID.TID 0000.0001) %MON trAdv_CFL_w_max              =   3.5339992714114E-09
(PID.TID 0000.0001) %MON advcfl_uvel_max              =   1.8064179448537E-03
(PID.TID 0000.0001) %MON advcfl_vvel_max              =   4.6471623234208E-03
(PID.TID 0000.0001) %MON advcfl_wvel_max              =   7.0629342888482E-09
(PID.TID 0000.0001) %MON advcfl_W_hf_max              =   0.0000000000000E+00
(PID.TID 0000.0001) %MON pe_b_mean                    =   2.8613271033961E-07
(PID.TID 0000.0001) %MON ke_max                       =   2.9989379745090E-03
(PID.TID 0000.0001) %MON ke_mean                      =   1.3184034350787E-04
(PID.TID 0000.0001) %MON ke_vol                       =   7.2000000000000E+15
(PID.TID 0000.0001) %MON vort_r_min                   =  -1.4681603216596E-06
(PID.TID 0000.0001) %MON vort_r_max                   =   2.1567950410447E-06
(PID.TID 0000.0001) %MON vort_a_mean                  =   1.0600000000000E-04
(PID.TID 0000.0001) %MON vort_a_sd                    =   3.5361485137602E-06
(PID.TID 0000.0001) %MON vort_p_mean                  =   1.1130000000000E-04
(PID.TID 0000.0001) %MON vort_p_sd                    =   4.1152830331854E-05
(PID.TID 0000.0001) %MON surfExpan_theta_mean         =   8.3959624438042E-20
(PID.TID 0000.0001) %MON surfExpan_salt_mean          =   1.2594101564092E-19
(PID.TID 0000.0001) // =======================================================
(PID.TID 0000.0001) // End MONITOR dynamic field statistics
(PID.TID 0000.0001) // =======================================================
 cg2d: Sum(rhs),rhsMax =  -2.47846539333298E-04  1.29852535906317E-01
 cg2d: Sum(rhs),rhsMax =  -2.47557742912270E-04  1.29854528538210E-01
 cg2d: Sum(rhs),rhsMax =  -2.47268669909759E-04  1.29856530770452E-01
 cg2d: Sum(rhs),rhsMax =  -2.46979320511070E-04  1.29858542590795E-01
 cg2d: Sum(rhs),rhsMax =  -2.46689694843451E-04  1.29860563986964E-01
 cg2d: Sum(rhs),rhsMax =  -2.46399793093140E-04  1.29862594946668E-01
 cg2d: Sum(rhs),rhsMax =  -2.46109615464157E-04  1.29864635457587E-01
 cg2d: Sum(rhs),rhsMax =  -2.45819162226769E-04  1.29866685507383E-01
 cg2d: Sum(rhs),rhsMax =  -2.45528433522124E-04  1.29868745083694E-01
 cg2d: Sum(rhs),rhsMax =  -2.45237429688239E-04  1.29870814174137E-01
 cg2d: Sum(rhs),rhsMax =  -2.44946150846670E-04  1.29872892766307E-01
 cg2d: Sum(rhs),rhsMax =  -2.44654597219710E-04  1.29874980847776E-01
 cg2d: Sum(rhs),rhsMax =  -2.44362769297329E-04  1.29877078406095E-01
 cg2d: Sum(rhs),rhsMax =  -2.44070667099900E-04  1.29879185428791E-01
 cg2d: Sum(rhs),rhsMax =  -2.43778291044111E-04  1.29881301903372E-01
 cg2d: Sum(rhs),rhsMax =  -2.43485641320309E-04  1.29883427817322E-01
 cg2d: Sum(rhs),rhsMax =  -2.43192718279751E-04  1.29885563158103E-01
 cg2d: Sum(rhs),rhsMax =  -2.42899522319158E-04  1.29887707913156E-01
 cg2d: Sum(rhs),rhsMax =  -2.42606053559736E-04  1.29889862069901E-01
 cg2d: Sum(rhs),rhsMax =  -2.42312312337958E-04  1.29892025615735E-01
 cg2d: Sum(rhs),rhsMax =  -2.42018299138163E-04  1.29894198538032E-01
 cg2d: Sum(rhs),rhsMax =  -2.41724014232272E-04  1.29896380824147E-01
 cg2d: Sum(rhs),rhsMax =  -2.41429458004742E-04  1.29898572461412E-01
 cg2d: Sum(rhs),rhsMax =  -2.41134630606882E-04  1.29900773437137E-01
 cg2d: Sum(rhs),rhsMax =  -2.40839532581020E-04  1.29902983738612E-01
 cg2d: Sum(rhs),rhsMax =  -2.40544164305308E-04  1.29905203353101E-01
 cg2d: Sum(rhs),rhsMax =  -2.40248526013141E-04  1.29907432267852E-01
 cg2d: Sum(rhs),rhsMax =  -2.39952618296013E-04  1.29909670470089E-01
 cg2d: Sum(rhs),rhsMax =  -2.39656441473138E-04  1.29911917947014E-01
 cg2d: Sum(rhs),rhsMax =  -2.39359995934563E-04  1.29914174685809E-01
 cg2d: Sum(rhs),rhsMax =  -2.39063282024327E-04  1.29916440673632E-01
 cg2d: Sum(rhs),rhsMax =  -2.38766300294555E-04  1.29918715897624E-01
 cg2d: Sum(rhs),rhsMax =  -2.38469051110466E-04  1.29921000344900E-01
 cg2d: Sum(rhs),rhsMax =  -2.38171534845158E-04  1.29923294002556E-01
 cg2d: Sum(rhs),rhsMax =  -2.37873752016718E-04  1.29925596857667E-01
 cg2d: Sum(rhs),rhsMax =  -2.37575703040410E-04  1.29927908897286E-01
 cg2d: Sum(rhs),rhsMax =  -2.37277388467164E-04  1.29930230108444E-01
 cg2d: Sum(rhs),rhsMax =  -2.36978808662549E-04  1.29932560478154E-01
 cg2d: Sum(rhs),rhsMax =  -2.36679964052392E-04  1.29934899993402E-01
 cg2d: Sum(rhs),rhsMax =  -2.36380855354672E-04  1.29937248641162E-01
 cg2d: Sum(rhs),rhsMax =  -2.36081482842616E-04  1.29939606408376E-01
 cg2d: Sum(rhs),rhsMax =  -2.35781847084200E-04  1.29941973281973E-01
 cg2d: Sum(rhs),rhsMax =  -2.35481948595372E-04  1.29944349248859E-01
 cg2d: Sum(rhs),rhsMax =  -2.35181787872936E-04  1.29946734295918E-01
 cg2d: Sum(rhs),rhsMax =  -2.34881365464163E-04  1.29949128410012E-01
 cg2d: Sum(rhs),rhsMax =  -2.34580681931130E-04  1.29951531577986E-01
 cg2d: Sum(rhs),rhsMax =  -2.34279737612969E-04  1.29953943786661E-01
 cg2d: Sum(rhs),rhsMax =  -2.33978533277420E-04  1.29956365022837E-01
 cg2d: Sum(rhs),rhsMax =  -2.33677069493811E-04  1.29958795273295E-01
 cg2d: Sum(rhs),rhsMax =  -2.33375346699943E-04  1.29961234524795E-01
 cg2d: Sum(rhs),rhsMax =  -2.33073365468923E-04  1.29963682764075E-01
 cg2d: Sum(rhs),rhsMax =  -2.32771126363456E-04  1.29966139977852E-01
 cg2d: Sum(rhs),rhsMax =  -2.32468630031235E-04  1.29968606152826E-01
 cg2d: Sum(rhs),rhsMax =  -2.32165876986677E-04  1.29971081275672E-01
 cg2d: Sum(rhs),rhsMax =  -2.31862867913953E-04  1.29973565333046E-01
 cg2d: Sum(rhs),rhsMax =  -2.31559603404602E-04  1.29976058311584E-01
 cg2d: Sum(rhs),rhsMax =  -2.31256084007892E-04  1.29978560197901E-01
 cg2d: Sum(rhs),rhsMax =  -2.30952310318962E-04  1.29981070978593E-01
 cg2d: Sum(rhs),rhsMax =  -2.30648283002415E-04  1.29983590640233E-01
 cg2d: Sum(rhs),rhsMax =  -2.30344002726427E-04  1.29986119169375E-01
 cg2d: Sum(rhs),rhsMax =  -2.30039470155190E-04  1.29988656552552E-01
 cg2d: Sum(rhs),rhsMax =  -2.29734685734193E-04  1.29991202776277E-01
 cg2d: Sum(rhs),rhsMax =  -2.29429650465606E-04  1.29993757827044E-01
 cg2d: Sum(rhs),rhsMax =  -2.29124364631276E-04  1.29996321691326E-01
 cg2d: Sum(rhs),rhsMax =  -2.28818829124676E-04  1.29998894355574E-01
 cg2d: Sum(rhs),rhsMax =  -2.28513044643469E-04  1.30001475806220E-01
 cg2d: Sum(rhs),rhsMax =  -2.28207011740477E-04  1.30004066029677E-01
 cg2d: Sum(rhs),rhsMax =  -2.27900731153553E-04  1.30006665012336E-01
 cg2d: Sum(rhs),rhsMax =  -2.27594203618034E-04  1.30009272740570E-01
 cg2d: Sum(rhs),rhsMax =  -2.27287429716143E-04  1.30011889200730E-01
 cg2d: Sum(rhs),rhsMax =  -2.26980410310914E-04  1.30014514379149E-01
 cg2d: Sum(rhs),rhsMax =  -2.26673145921151E-04  1.30017148262137E-01
(PID.TID 0000.0001)      cg2d_init_res =   1.26661216229188E-03
(PID.TID 0000.0001)      cg2d_iters(min,last) =      -1      76
(PID.TID 0000.0001)      cg2d_last_res =   9.22517175146015E-08
(PID.TID 0000.0001) // =======================================================
(PID.TID 0000.0001) // Begin MONITOR dynamic field statistics
(PID.TID 0000.0001) // =======================================================
(PID.TID 0000.0001) %MON time_tsnumber                =                  8424
(PID.TID 0000.0001) %MON time_secondsf                =   1.0108800000000E+07
(PID.TID 0000.0001) %MON dynstat_eta_max              =   3.9267961917985E-02
(PID.TID 0000.0001) %MON dynstat_eta_min              =  -2.4930226758761E-02
(PID.TID 0000.0001) %MON dynstat_eta_mean             =   1.4716006417984E-07
(PID.TID 0000.0001) %MON dynstat_eta_sd               =   1.7422342906428E-02
(PID.TID 0000.0001) %MON dynstat_eta_del2             =   1.7695991059121E-05
(PID.TID 0000.0001) %MON dynstat_uvel_max             =   3.0216575351866E-02
(PID.TID 0000.0001) %MON dynstat_uvel_min             =  -1.6256112093392E-02
(PID.TID 0000.0001) %MON dynstat_uvel_mean            =  -2.4149923977635E-07
(PID.TID 0000.0001) %MON dynstat_uvel_sd              =   7.4222917313710E-03
(PID.TID 0000.0001) %MON dynstat_uvel_del2            =   8.6190056117414E-06
(PID.TID 0000.0001) %MON dynstat_vvel_max             =   7.7880809260158E-02
(PID.TID 0000.0001) %MON dynstat_vvel_min             =  -3.2615225204931E-02
(PID.TID 0000.0001) %MON dynstat_vvel_mean            =  -4.8768814906062E-09
(PID.TID 0000.0001) %MON dynstat_vvel_sd              =   1.4688014182349E-02
(PID.TID 0000.0001) %MON dynstat_vvel_del2            =   7.2466772938686E-05
(PID.TID 0000.0001) %MON dynstat_wvel_max             =   1.3940836810943E-08
(PID.TID 0000.0001) %MON dynstat_wvel_min             =  -1.3547916327370E-08
(PID.TID 0000.0001) %MON dynstat_wvel_mean            =  -3.1584704629495E-21
(PID.TID 0000.0001) %MON dynstat_wvel_sd              =   6.4896553039330E-09
(PID.TID 0000.0001) %MON dynstat_wvel_del2            =   2.5176820587802E-12
(PID.TID 0000.0001) %MON dynstat_theta_max            =   2.0000000000000E+01
(PID.TID 0000.0001) %MON dynstat_theta_min            =   2.0000000000000E+01
(PID.TID 0000.0001) %MON dynstat_theta_mean           =   2.0000000000000E+01
(PID.TID 0000.0001) %MON dynstat_theta_sd             =   0.0000000000000E+00
(PID.TID 0000.0001) %MON dynstat_theta_del2           =   0.0000000000000E+00
(PID.TID 0000.0001) %MON dynstat_salt_max             =   3.0000000000000E+01
(PID.TID 0000.0001) %MON dynstat_salt_min             =   3.0000000000000E+01
(PID.TID 0000.0001) %MON dynstat_salt_mean            =   3.0000000000000E+01
(PID.TID 0000.0001) %MON dynstat_salt_sd              =   0.0000000000000E+00
(PID.TID 0000.0001) %MON dynstat_salt_del2            =   0.0000000000000E+00
(PID.TID 0000.0001) %MON trAdv_CFL_u_max              =   1.8128990305962E-03
(PID.TID 0000.0001) %MON trAdv_CFL_v_max              =   4.6724750799166E-03
(PID.TID 0000.0001) %MON trAdv_CFL_w_max              =   3.3481588746188E-09
(PID.TID 0000.0001) %MON advcfl_uvel_max              =   1.8129945211119E-03
(PID.TID 0000.0001) %MON advcfl_vvel_max              =   4.6728485556095E-03
(PID.TID 0000.0001) %MON advcfl_wvel_max              =   6.6916016692529E-09
(PID.TID 0000.0001) %MON advcfl_W_hf_max              =   0.0000000000000E+00
(PID.TID 0000.0001) %MON pe_b_mean                    =   2.9777080975577E-07
(PID.TID 0000.0001) %MON ke_max                       =   3.0310490088887E-03
(PID.TID 0000.0001) %MON ke_mean                      =   1.3315718615219E-04
(PID.TID 0000.0001) %MON ke_vol                       =   7.2000000000000E+15
(PID.TID 0000.0001) %MON vort_r_min                   =  -1.4632535233322E-06
(PID.TID 0000.0001) %MON vort_r_max                   =   2.1714733536212E-06
(PID.TID 0000.0001) %MON vort_a_mean                  =   1.0600000000000E-04
(PID.TID 0000.0001) %MON vort_a_sd                    =   3.5362175713569E-06
(PID.TID 0000.0001) %MON vort_p_mean                  =   1.1130000000000E-04
(PID.TID 0000.0001) %MON vort_p_sd                    =   4.1152875415616E-05
(PID.TID 0000.0001) %MON surfExpan_theta_mean         =  -6.3169627553508E-20
(PID.TID 0000.0001) %MON surfExpan_salt_mean          =  -9.4756252227373E-20
(PID.TID 0000.0001) // =======================================================
(PID.TID 0000.0001) // End MONITOR dynamic field statistics
(PID.TID 0000.0001) // =======================================================
 cg2d: Sum(rhs),rhsMax =  -2.26359392110721E-04  1.30023378143242E-01
 cg2d: Sum(rhs),rhsMax =  -2.26039392247880E-04  1.30033079849145E-01
 cg2d: Sum(rhs),rhsMax =  -2.25719179374289E-04  1.30042793392211E-01
 cg2d: Sum(rhs),rhsMax =  -2.25398754380827E-04  1.30052518752596E-01
 cg2d: Sum(rhs),rhsMax =  -2.25078118149404E-04  1.30062255910432E-01
 cg2d: Sum(rhs),rhsMax =  -2.24757271408985E-04  1.30072004845827E-01
 cg2d: Sum(rhs),rhsMax =  -2.24436214935506E-04  1.30081765538863E-01
 cg2d: Sum(rhs),rhsMax =  -2.24114949679408E-04  1.30091537969600E-01
 cg2d: Sum(rhs),rhsMax =  -2.23793476545974E-04  1.30101322118073E-01
 cg2d: Sum(rhs),rhsMax =  -2.23471796248961E-04  1.30111117964292E-01
 cg2d: Sum(rhs),rhsMax =  -2.23149909637150E-04  1.30120925488244E-01
 cg2d: Sum(rhs),rhsMax =  -2.22827817681515E-04  1.30130744669891E-01
 cg2d: Sum(rhs),rhsMax =  -2.22505521132233E-04  1.30140575489172E-01
 cg2d: Sum(rhs),rhsMax =  -2.22183020957060E-04  1.30150417926003E-01
 cg2d: Sum(rhs),rhsMax =  -2.21860318025547E-04  1.30160271960275E-01
 cg2d: Sum(rhs),rhsMax =  -2.21537413278195E-04  1.30170137571852E-01
 cg2d: Sum(rhs),rhsMax =  -2.21214307460566E-04  1.30180014740581E-01
 cg2d: Sum(rhs),rhsMax =  -2.20891001679597E-04  1.30189903446279E-01
 cg2d: Sum(rhs),rhsMax =  -2.20567496740036E-04  1.30199803668743E-01
 cg2d: Sum(rhs),rhsMax =  -2.20243793613986E-04  1.30209715387745E-01
 cg2d: Sum(rhs),rhsMax =  -2.19919893084585E-04  1.30219638583034E-01
 cg2d: Sum(rhs),rhsMax =  -2.19595796346319E-04  1.30229573234335E-01
 cg2d: Sum(rhs),rhsMax =  -2.19271504048477E-04  1.30239519321348E-01
 cg2d: Sum(rhs),rhsMax =  -2.18947017247955E-04  1.30249476823752E-01
 cg2d: Sum(rhs),rhsMax =  -2.18622337012708E-04  1.30259445721203E-01
 cg2d: Sum(rhs),rhsMax =  -2.18297464146536E-04  1.30269425993330E-01
 cg2d: Sum(rhs),rhsMax =  -2.17972399659675E-04  1.30279417619743E-01
 cg2d: Sum(rhs),rhsMax =  -2.17647144655358E-04  1.30289420580025E-01
 cg2d: Sum(rhs),rhsMax =  -2.17321699934213E-04  1.30299434853737E-01
 cg2d: Sum(rhs),rhsMax =  -2.16996066644665E-04  1.30309460420419E-01
 cg2d: Sum(rhs),rhsMax =  -2.16670245625225E-04  1.30319497259584E-01
 cg2d: Sum(rhs),rhsMax =  -2.16344237988185E-04  1.30329545350726E-01
 cg2d: Sum(rhs),rhsMax =  -2.16018044641647E-04  1.30339604673312E-01
 cg2d: Sum(rhs),rhsMax =  -2.15691666591875E-04  1.30349675206788E-01
 cg2d: Sum(rhs),rhsMax =  -2.15365105025842E-04  1.30359756930579E-01
 cg2d: Sum(rhs),rhsMax =  -2.15038360795465E-04  1.30369849824081E-01
 cg2d: Sum(rhs),rhsMax =  -2.14711435041608E-04  1.30379953866675E-01
 cg2d: Sum(rhs),rhsMax =  -2.14384328766593E-04  1.30390069037712E-01
 cg2d: Sum(rhs),rhsMax =  -2.14057042981221E-04  1.30400195316525E-01
 cg2d: Sum(rhs),rhsMax =  -2.13729406717226E-04  1.30410437719434E-01
 cg2d: Sum(rhs),rhsMax =  -2.13400553560495E-04  1.30421326784093E-01
 cg2d: Sum(rhs),rhsMax =  -2.13071528639188E-04  1.30432226538499E-01
 cg2d: Sum(rhs),rhsMax =  -2.12742333082832E-04  1.30443136961394E-01
 cg2d: Sum(rhs),rhsMax =  -2.12412967937693E-04  1.30454058031499E-01
 cg2d: Sum(rhs),rhsMax =  -2.12083434189354E-04  1.30464989727510E-01
 cg2d: Sum(rhs),rhsMax =  -2.11753733082301E-04  1.30475932028101E-01
 cg2d: Sum(rhs),rhsMax =  -2.11423865735105E-04  1.30486884911924E-01
 cg2d: Sum(rhs),rhsMax =  -2.11093833078182E-04  1.30497848357612E-01
 cg2d: Sum(rhs),rhsMax =  -2.10763636236793E-04  1.30508822343769E-01
 cg2d: Sum(rhs),rhsMax =  -2.10433276548303E-04  1.30519806848984E-01
 cg2d: Sum(rhs),rhsMax =  -2.10102755007816E-04  1.30530801851819E-01
 cg2d: Sum(rhs),rhsMax =  -2.09772072740442E-04  1.30541807330816E-01
 cg2d: Sum(rhs),rhsMax =  -2.09441230892583E-04  1.30552823264492E-01
 cg2d: Sum(rhs),rhsMax =  -2.09110230688711E-04  1.30563849631349E-01
 cg2d: Sum(rhs),rhsMax =  -2.08779073246587E-04  1.30574886409861E-01
 cg2d: Sum(rhs),rhsMax =  -2.08447759794683E-04  1.30585933578479E-01
 cg2d: Sum(rhs),rhsMax =  -2.08116291342539E-04  1.30596991115638E-01
 cg2d: Sum(rhs),rhsMax =  -2.07784669324719E-04  1.30608058999748E-01
 cg2d: Sum(rhs),rhsMax =  -2.07452894728468E-04  1.30619137209196E-01
 cg2d: Sum(rhs),rhsMax =  -2.07120968745793E-04  1.30630225722350E-01
 cg2d: Sum(rhs),rhsMax =  -2.06788892710631E-04  1.30641324517553E-01
 cg2d: Sum(rhs),rhsMax =  -2.06456667769380E-04  1.30652433573131E-01
 cg2d: Sum(rhs),rhsMax =  -2.06124295198359E-04  1.30663552867385E-01
 cg2d: Sum(rhs),rhsMax =  -2.05791776059254E-04  1.30674682378595E-01
 cg2d: Sum(rhs),rhsMax =  -2.05459111759023E-04  1.30685822085020E-01
 cg2d: Sum(rhs),rhsMax =  -2.05126303430332E-04  1.30696971964899E-01
 cg2d: Sum(rhs),rhsMax =  -2.04719410580569E-04  1.30708132085071E-01
 cg2d: Sum(rhs),rhsMax =  -2.04312382070442E-04  1.30719302263386E-01
 cg2d: Sum(rhs),rhsMax =  -2.03905169409908E-04  1.30730482536673E-01
 cg2d: Sum(rhs),rhsMax =  -2.03497801325989E-04  1.30741672895467E-01
 cg2d: Sum(rhs),rhsMax =  -2.03090281331211E-04  1.30752873318400E-01
 cg2d: Sum(rhs),rhsMax =  -2.02682612000569E-04  1.30764083784640E-01
(PID.TID 0000.0001)      cg2d_init_res =   1.25581439212848E-03
(PID.TID 0000.0001)      cg2d_iters(min,last) =      -1      75
(PID.TID 0000.0001)      cg2d_last_res =   9.90442618473917E-08
(PID.TID 0000.0001) // =======================================================
(PID.TID 0000.0001) // Begin MONITOR dynamic field statistics
(PID.TID 0000.0001) // =======================================================
(PID.TID 0000.0001) %MON time_tsnumber                =                  8496
(PID.TID 0000.0001) %MON time_secondsf                =   1.0195200000000E+07
(PID.TID 0000.0001) %MON dynstat_eta_max              =   3.9761415307319E-02
(PID.TID 0000.0001) %MON dynstat_eta_min              =  -2.5143867645787E-02
(PID.TID 0000.0001) %MON dynstat_eta_mean             =   1.3226273893754E-07
(PID.TID 0000.0001) %MON dynstat_eta_sd               =   1.7763775503473E-02
(PID.TID 0000.0001) %MON dynstat_eta_del2             =   1.7688315842618E-05
(PID.TID 0000.0001) %MON dynstat_uvel_max             =   3.0335946586608E-02
(PID.TID 0000.0001) %MON dynstat_uvel_min             =  -1.6348921494689E-02
(PID.TID 0000.0001) %MON dynstat_uvel_mean            =  -2.5738850930758E-07
(PID.TID 0000.0001) %MON dynstat_uvel_sd              =   7.5089564111649E-03
(PID.TID 0000.0001) %MON dynstat_uvel_del2            =   8.6768705235306E-06
(PID.TID 0000.0001) %MON dynstat_vvel_max             =   7.8348201419873E-02
(PID.TID 0000.0001) %MON dynstat_vvel_min             =  -3.2261130045311E-02
(PID.TID 0000.0001) %MON dynstat_vvel_mean            =  -3.7023421545597E-09
(PID.TID 0000.0001) %MON dynstat_vvel_sd              =   1.4737733897106E-02
(PID.TID 0000.0001) %MON dynstat_vvel_del2            =   7.2587160044734E-05
(PID.TID 0000.0001) %MON dynstat_wvel_max             =   1.3170011830080E-08
(PID.TID 0000.0001) %MON dynstat_wvel_min             =  -1.4033941917005E-08
(PID.TID 0000.0001) %MON dynstat_wvel_mean            =   1.5697120008756E-21
(PID.TID 0000.0001) %MON dynstat_wvel_sd              =   6.4776401681588E-09
(PID.TID 0000.0001) %MON dynstat_wvel_del2            =   2.5121417205622E-12
(PID.TID 0000.0001) %MON dynstat_theta_max            =   2.0000000000000E+01
(PID.TID 0000.0001) %MON dynstat_theta_min            =   2.0000000000000E+01
(PID.TID 0000.0001) %MON dynstat_theta_mean           =   2.0000000000000E+01
(PID.TID 0000.0001) %MON dynstat_theta_sd             =   0.0000000000000E+00
(PID.TID 0000.0001) %MON dynstat_theta_del2           =   0.0000000000000E+00
(PID.TID 0000.0001) %MON dynstat_salt_max             =   3.0000000000000E+01
(PID.TID 0000.0001) %MON dynstat_salt_min             =   3.0000000000000E+01
(PID.TID 0000.0001) %MON dynstat_salt_mean            =   3.0000000000000E+01
(PID.TID 0000.0001) %MON dynstat_salt_sd              =   0.0000000000000E+00
(PID.TID 0000.0001) %MON dynstat_salt_del2            =   0.0000000000000E+00
(PID.TID 0000.0001) %MON trAdv_CFL_u_max              =   1.8200535888256E-03
(PID.TID 0000.0001) %MON trAdv_CFL_v_max              =   4.7004876142641E-03
(PID.TID 0000.0001) %MON trAdv_CFL_w_max              =   3.1636519887834E-09
(PID.TID 0000.0001) %MON advcfl_uvel_max              =   1.8201567951965E-03
(PID.TID 0000.0001) %MON advcfl_vvel_max              =   4.7008920851924E-03
(PID.TID 0000.0001) %MON advcfl_wvel_max              =   6.7362921201624E-09
(PID.TID 0000.0001) %MON advcfl_W_hf_max              =   0.0000000000000E+00
(PID.TID 0000.0001) %MON pe_b_mean                    =   3.0955623747235E-07
(PID.TID 0000.0001) %MON ke_max                       =   3.0670306799561E-03
(PID.TID 0000.0001) %MON ke_mean                      =   1.3451273654587E-04
(PID.TID 0000.0001) %MON ke_vol                       =   7.2000000000000E+15
(PID.TID 0000.0001) %MON vort_r_min                   =  -1.4593121612474E-06
(PID.TID 0000.0001) %MON vort_r_max                   =   2.1869980633003E-06
(PID.TID 0000.0001) %MON vort_a_mean                  =   1.0600000000000E-04
(PID.TID 0000.0001) %MON vort_a_sd                    =   3.5362975106624E-06
(PID.TID 0000.0001) %MON vort_p_mean                  =   1.1130000000000E-04
(PID.TID 0000.0001) %MON vort_p_sd                    =   4.1152905872106E-05
(PID.TID 0000.0001) %MON surfExpan_theta_mean         =   3.1396829580643E-20
(PID.TID 0000.0001) %MON surfExpan_salt_mean          =   4.7094296363860E-20
(PID.TID 0000.0001) // =======================================================
(PID.TID 0000.0001) // End MONITOR dynamic field statistics
(PID.TID 0000.0001) // =======================================================
 cg2d: Sum(rhs),rhsMax =  -2.02274794419368E-04  1.30775304271892E-01
 cg2d: Sum(rhs),rhsMax =  -2.01866829851290E-04  1.30786534757835E-01
 cg2d: Sum(rhs),rhsMax =  -2.01458719904097E-04  1.30797775220351E-01
 cg2d: Sum(rhs),rhsMax =  -2.01050466907096E-04  1.30809025637456E-01
 cg2d: Sum(rhs),rhsMax =  -2.00642073408203E-04  1.30820285987183E-01
 cg2d: Sum(rhs),rhsMax =  -2.00233542255432E-04  1.30831556247544E-01
 cg2d: Sum(rhs),rhsMax =  -1.99824876012433E-04  1.30842836396516E-01
 cg2d: Sum(rhs),rhsMax =  -1.99416077117722E-04  1.30854126412053E-01
 cg2d: Sum(rhs),rhsMax =  -1.99007147982060E-04  1.30865426272076E-01
 cg2d: Sum(rhs),rhsMax =  -1.98598090963746E-04  1.30876735954482E-01
 cg2d: Sum(rhs),rhsMax =  -1.98188908420391E-04  1.30888055437149E-01
 cg2d: Sum(rhs),rhsMax =  -1.97779602796994E-04  1.30899384697930E-01
 cg2d: Sum(rhs),rhsMax =  -1.97370176705499E-04  1.30910723714668E-01
 cg2d: Sum(rhs),rhsMax =  -1.96960632503587E-04  1.30922072465182E-01
 cg2d: Sum(rhs),rhsMax =  -1.96550972674414E-04  1.30933430927275E-01
 cg2d: Sum(rhs),rhsMax =  -1.96141199758242E-04  1.30944799078726E-01
 cg2d: Sum(rhs),rhsMax =  -1.95731316240739E-04  1.30956176897297E-01
 cg2d: Sum(rhs),rhsMax =  -1.95321324671119E-04  1.30967564360723E-01
 cg2d: Sum(rhs),rhsMax =  -1.94911227499968E-04  1.30978961446725E-01
 cg2d: Sum(rhs),rhsMax =  -1.94501027322788E-04  1.30990368132998E-01
 cg2d: Sum(rhs),rhsMax =  -1.94090726516998E-04  1.31001784397221E-01
 cg2d: Sum(rhs),rhsMax =  -1.93680327802093E-04  1.31013210217051E-01
 cg2d: Sum(rhs),rhsMax =  -1.93269833631954E-04  1.31024645570128E-01
 cg2d: Sum(rhs),rhsMax =  -1.92859246595477E-04  1.31036090434068E-01
 cg2d: Sum(rhs),rhsMax =  -1.92448569234924E-04  1.31047544786471E-01
 cg2d: Sum(rhs),rhsMax =  -1.92037804224343E-04  1.31059008604915E-01
 cg2d: Sum(rhs),rhsMax =  -1.91626953998573E-04  1.31070481866959E-01
 cg2d: Sum(rhs),rhsMax =  -1.91216021122853E-04  1.31081964550142E-01
 cg2d: Sum(rhs),rhsMax =  -1.90805008253607E-04  1.31093456631983E-01
 cg2d: Sum(rhs),rhsMax =  -1.90393918169933E-04  1.31104958089982E-01
 cg2d: Sum(rhs),rhsMax =  -1.89982753177520E-04  1.31116468901619E-01
 cg2d: Sum(rhs),rhsMax =  -1.89571516188204E-04  1.31127989044353E-01
 cg2d: Sum(rhs),rhsMax =  -1.89160209576687E-04  1.31139518495629E-01
 cg2d: Sum(rhs),rhsMax =  -1.88748836072434E-04  1.31151057232862E-01
 cg2d: Sum(rhs),rhsMax =  -1.88337398442056E-04  1.31162605233460E-01
 cg2d: Sum(rhs),rhsMax =  -1.87925899105597E-04  1.31174162474803E-01
 cg2d: Sum(rhs),rhsMax =  -1.87514340893365E-04  1.31185728934255E-01
 cg2d: Sum(rhs),rhsMax =  -1.87102726359583E-04  1.31197304589162E-01
 cg2d: Sum(rhs),rhsMax =  -1.86691058313515E-04  1.31208889416846E-01
 cg2d: Sum(rhs),rhsMax =  -1.86279339270670E-04  1.31220483394617E-01
 cg2d: Sum(rhs),rhsMax =  -1.85867572055519E-04  1.31232086499758E-01
 cg2d: Sum(rhs),rhsMax =  -1.85455759389419E-04  1.31243698709540E-01
 cg2d: Sum(rhs),rhsMax =  -1.85043903788698E-04  1.31255320001210E-01
 cg2d: Sum(rhs),rhsMax =  -1.84632008208047E-04  1.31266950351998E-01
 cg2d: Sum(rhs),rhsMax =  -1.84220075133528E-04  1.31278589739117E-01
 cg2d: Sum(rhs),rhsMax =  -1.83808107500868E-04  1.31290238139757E-01
 cg2d: Sum(rhs),rhsMax =  -1.83396107891671E-04  1.31301895531092E-01
 cg2d: Sum(rhs),rhsMax =  -1.82984079055412E-04  1.31313561890277E-01
 cg2d: Sum(rhs),rhsMax =  -1.82572023840050E-04  1.31325237194449E-01
 cg2d: Sum(rhs),rhsMax =  -1.82159944949462E-04  1.31336921420724E-01
 cg2d: Sum(rhs),rhsMax =  -1.81747845127670E-04  1.31348614546202E-01
 cg2d: Sum(rhs),rhsMax =  -1.81335727242497E-04  1.31360316547962E-01
 cg2d: Sum(rhs),rhsMax =  -1.80923593916893E-04  1.31372027403067E-01
 cg2d: Sum(rhs),rhsMax =  -1.80511448075750E-04  1.31383747088560E-01
 cg2d: Sum(rhs),rhsMax =  -1.80099292468062E-04  1.31395475581466E-01
 cg2d: Sum(rhs),rhsMax =  -1.79687129870244E-04  1.31407212858792E-01
 cg2d: Sum(rhs),rhsMax =  -1.79274963170227E-04  1.31418958897526E-01
 cg2d: Sum(rhs),rhsMax =  -1.78862795096813E-04  1.31430713674639E-01
 cg2d: Sum(rhs),rhsMax =  -1.78450628560730E-04  1.31442477167082E-01
 cg2d: Sum(rhs),rhsMax =  -1.78038466225885E-04  1.31454249351790E-01
 cg2d: Sum(rhs),rhsMax =  -1.77626311191190E-04  1.31466030205679E-01
 cg2d: Sum(rhs),rhsMax =  -1.77214166121606E-04  1.31477819705645E-01
 cg2d: Sum(rhs),rhsMax =  -1.76802033900281E-04  1.31489617828569E-01
 cg2d: Sum(rhs),rhsMax =  -1.76389917428119E-04  1.31501424551314E-01
 cg2d: Sum(rhs),rhsMax =  -1.75977819591820E-04  1.31513239850723E-01
 cg2d: Sum(rhs),rhsMax =  -1.75565743148410E-04  1.31525063703622E-01
 cg2d: Sum(rhs),rhsMax =  -1.75153691216142E-04  1.31536896086820E-01
 cg2d: Sum(rhs),rhsMax =  -1.74741666466654E-04  1.31548736977109E-01
 cg2d: Sum(rhs),rhsMax =  -1.74329671903299E-04  1.31560586351259E-01
 cg2d: Sum(rhs),rhsMax =  -1.73917710384425E-04  1.31572444186029E-01
 cg2d: Sum(rhs),rhsMax =  -1.73505784830289E-04  1.31584310458156E-01
 cg2d: Sum(rhs),rhsMax =  -1.73093898277642E-04  1.31596185144360E-01
(PID.TID 0000.0001)      cg2d_init_res =   1.24314862314353E-03
(PID.TID 0000.0001)      cg2d_iters(min,last) =      -1      75
(PID.TID 0000.0001)      cg2d_last_res =   8.64895948873613E-08
(PID.TID 0000.0001) // =======================================================
(PID.TID 0000.0001) // Begin MONITOR dynamic field statistics
(PID.TID 0000.0001) // =======================================================
(PID.TID 0000.0001) %MON time_tsnumber                =                  8568
(PID.TID 0000.0001) %MON time_secondsf                =   1.0281600000000E+07
(PID.TID 0000.0001) %MON dynstat_eta_max              =   4.0323405663117E-02
(PID.TID 0000.0001) %MON dynstat_eta_min              =  -2.5311953338729E-02
(PID.TID 0000.0001) %MON dynstat_eta_mean             =   1.1363175748851E-07
(PID.TID 0000.0001) %MON dynstat_eta_sd               =   1.8098771861253E-02
(PID.TID 0000.0001) %MON dynstat_eta_del2             =   1.7685248585157E-05
(PID.TID 0000.0001) %MON dynstat_uvel_max             =   3.0464013968509E-02
(PID.TID 0000.0001) %MON dynstat_uvel_min             =  -1.6442679870574E-02
(PID.TID 0000.0001) %MON dynstat_uvel_mean            =  -2.7009527783786E-07
(PID.TID 0000.0001) %MON dynstat_uvel_sd              =   7.5869852394983E-03
(PID.TID 0000.0001) %MON dynstat_uvel_del2            =   8.7280455683132E-06
(PID.TID 0000.0001) %MON dynstat_vvel_max             =   7.8850492048356E-02
(PID.TID 0000.0001) %MON dynstat_vvel_min             =  -3.1956084115229E-02
(PID.TID 0000.0001) %MON dynstat_vvel_mean            =  -2.4482561806415E-09
(PID.TID 0000.0001) %MON dynstat_vvel_sd              =   1.4792671871934E-02
(PID.TID 0000.0001) %MON dynstat_vvel_del2            =   7.2731824302229E-05
(PID.TID 0000.0001) %MON dynstat_wvel_max             =   1.2351421167841E-08
(PID.TID 0000.0001) %MON dynstat_wvel_min             =  -1.4560173991485E-08
(PID.TID 0000.0001) %MON dynstat_wvel_mean            =  -7.5522494727112E-22
(PID.TID 0000.0001) %MON dynstat_wvel_sd              =   6.4634484254952E-09
(PID.TID 0000.0001) %MON dynstat_wvel_del2            =   2.5019639820236E-12
(PID.TID 0000.0001) %MON dynstat_theta_max            =   2.0000000000000E+01
(PID.TID 0000.0001) %MON dynstat_theta_min            =   2.0000000000000E+01
(PID.TID 0000.0001) %MON dynstat_theta_mean           =   2.0000000000000E+01
(PID.TID 0000.0001) %MON dynstat_theta_sd             =   0.0000000000000E+00
(PID.TID 0000.0001) %MON dynstat_theta_del2           =   0.0000000000000E+00
(PID.TID 0000.0001) %MON dynstat_salt_max             =   3.0000000000000E+01
(PID.TID 0000.0001) %MON dynstat_salt_min             =   3.0000000000000E+01
(PID.TID 0000.0001) %MON dynstat_salt_mean            =   3.0000000000000E+01
(PID.TID 0000.0001) %MON dynstat_salt_sd              =   0.0000000000000E+00
(PID.TID 0000.0001) %MON dynstat_salt_del2            =   0.0000000000000E+00
(PID.TID 0000.0001) %MON trAdv_CFL_u_max              =   1.8277308589273E-03
(PID.TID 0000.0001) %MON trAdv_CFL_v_max              =   4.7305978852115E-03
(PID.TID 0000.0001) %MON trAdv_CFL_w_max              =   2.9669801753364E-09
(PID.TID 0000.0001) %MON advcfl_uvel_max              =   1.8278408381105E-03
(PID.TID 0000.0001) %MON advcfl_vvel_max              =   4.7310295229014E-03
(PID.TID 0000.0001) %MON advcfl_wvel_max              =   6.9888835159130E-09
(PID.TID 0000.0001) %MON advcfl_W_hf_max              =   0.0000000000000E+00
(PID.TID 0000.0001) %MON pe_b_mean                    =   3.2134179758353E-07
(PID.TID 0000.0001) %MON ke_max                       =   3.1072435238655E-03
(PID.TID 0000.0001) %MON ke_mean                      =   1.3588953071894E-04
(PID.TID 0000.0001) %MON ke_vol                       =   7.2000000000000E+15
(PID.TID 0000.0001) %MON vort_r_min                   =  -1.4554325753297E-06
(PID.TID 0000.0001) %MON vort_r_max                   =   2.2032157258522E-06
(PID.TID 0000.0001) %MON vort_a_mean                  =   1.0600000000000E-04
(PID.TID 0000.0001) %MON vort_a_sd                    =   3.5363873971414E-06
(PID.TID 0000.0001) %MON vort_p_mean                  =   1.1130000000000E-04
(PID.TID 0000.0001) %MON vort_p_sd                    =   4.1152920964339E-05
(PID.TID 0000.0001) %MON surfExpan_theta_mean         =  -1.5106849104995E-20
(PID.TID 0000.0001) %MON surfExpan_salt_mean          =  -2.2660589454265E-20
(PID.TID 0000.0001) // =======================================================
(PID.TID 0000.0001) // End MONITOR dynamic field statistics
(PID.TID 0000.0001) // =======================================================
 cg2d: Sum(rhs),rhsMax =  -1.72682053624282E-04  1.31608068221343E-01
 cg2d: Sum(rhs),rhsMax =  -1.72270253697379E-04  1.31619959665792E-01
 cg2d: Sum(rhs),rhsMax =  -1.71858501585138E-04  1.31631859454376E-01
 cg2d: Sum(rhs),rhsMax =  -1.71446800079410E-04  1.31643767563745E-01
 cg2d: Sum(rhs),rhsMax =  -1.71035152286665E-04  1.31655683970532E-01
 cg2d: Sum(rhs),rhsMax =  -1.70623561084321E-04  1.31667608651355E-01
 cg2d: Sum(rhs),rhsMax =  -1.70212029602435E-04  1.31679541582814E-01
 cg2d: Sum(rhs),rhsMax =  -1.69800560651375E-04  1.31691482741488E-01
 cg2d: Sum(rhs),rhsMax =  -1.69389157350561E-04  1.31703432103947E-01
 cg2d: Sum(rhs),rhsMax =  -1.68977822568194E-04  1.31715389646736E-01
 cg2d: Sum(rhs),rhsMax =  -1.68566559553000E-04  1.31727355346387E-01
 cg2d: Sum(rhs),rhsMax =  -1.68155371092494E-04  1.31739329179416E-01
 cg2d: Sum(rhs),rhsMax =  -1.67647046814376E-04  1.31751311118899E-01
 cg2d: Sum(rhs),rhsMax =  -1.67138832555654E-04  1.31763301160847E-01
 cg2d: Sum(rhs),rhsMax =  -1.66630795225812E-04  1.31775299259099E-01
 cg2d: Sum(rhs),rhsMax =  -1.66122916671591E-04  1.31787305395567E-01
 cg2d: Sum(rhs),rhsMax =  -1.65615197017125E-04  1.31799319547981E-01
 cg2d: Sum(rhs),rhsMax =  -1.65107639724080E-04  1.31811341692978E-01
 cg2d: Sum(rhs),rhsMax =  -1.64600249597626E-04  1.31823371806619E-01
 cg2d: Sum(rhs),rhsMax =  -1.64093032031704E-04  1.31835409865034E-01
 cg2d: Sum(rhs),rhsMax =  -1.63585991776246E-04  1.31847455844584E-01
 cg2d: Sum(rhs),rhsMax =  -1.63079132853444E-04  1.31859509721705E-01
 cg2d: Sum(rhs),rhsMax =  -1.62572459071995E-04  1.31871571472786E-01
 cg2d: Sum(rhs),rhsMax =  -1.62065974215052E-04  1.31883641074149E-01
 cg2d: Sum(rhs),rhsMax =  -1.61559682287253E-04  1.31895718502075E-01
 cg2d: Sum(rhs),rhsMax =  -1.61053587431137E-04  1.31907803732829E-01
 cg2d: Sum(rhs),rhsMax =  -1.60547693758293E-04  1.31919896742666E-01
 cg2d: Sum(rhs),rhsMax =  -1.60042005627177E-04  1.31931997507840E-01
 cg2d: Sum(rhs),rhsMax =  -1.59536527157476E-04  1.31944106004586E-01
 cg2d: Sum(rhs),rhsMax =  -1.59031262394435E-04  1.31956222209126E-01
 cg2d: Sum(rhs),rhsMax =  -1.58526215719968E-04  1.31968346097665E-01
 cg2d: Sum(rhs),rhsMax =  -1.58021391220006E-04  1.31980477646392E-01
 cg2d: Sum(rhs),rhsMax =  -1.57516793095249E-04  1.31992616831479E-01
 cg2d: Sum(rhs),rhsMax =  -1.57012425536407E-04  1.32004763629085E-01
 cg2d: Sum(rhs),rhsMax =  -1.56508292918285E-04  1.32016918015350E-01
 cg2d: Sum(rhs),rhsMax =  -1.56004399383430E-04  1.32029079966398E-01
 cg2d: Sum(rhs),rhsMax =  -1.55500749388548E-04  1.32041249458341E-01
 cg2d: Sum(rhs),rhsMax =  -1.54997347038778E-04  1.32053426467272E-01
 cg2d: Sum(rhs),rhsMax =  -1.54494196912715E-04  1.32065610969269E-01
 cg2d: Sum(rhs),rhsMax =  -1.53991303153259E-04  1.32077802940393E-01
 cg2d: Sum(rhs),rhsMax =  -1.53488670156264E-04  1.32090002356694E-01
 cg2d: Sum(rhs),rhsMax =  -1.52986302287196E-04  1.32102209194203E-01
 cg2d: Sum(rhs),rhsMax =  -1.52484204086524E-04  1.32114423428939E-01
 cg2d: Sum(rhs),rhsMax =  -1.51982379957285E-04  1.32126645036902E-01
 cg2d: Sum(rhs),rhsMax =  -1.51480834329493E-04  1.32138873994081E-01
 cg2d: Sum(rhs),rhsMax =  -1.50979571707664E-04  1.32151110276448E-01
 cg2d: Sum(rhs),rhsMax =  -1.50478596623824E-04  1.32163353859960E-01
 cg2d: Sum(rhs),rhsMax =  -1.49977913489251E-04  1.32175604720558E-01
 cg2d: Sum(rhs),rhsMax =  -1.49477527019303E-04  1.32187862834169E-01
 cg2d: Sum(rhs),rhsMax =  -1.48977441819445E-04  1.32200128176705E-01
 cg2d: Sum(rhs),rhsMax =  -1.48477662521049E-04  1.32212400724065E-01
 cg2d: Sum(rhs),rhsMax =  -1.47978193674454E-04  1.32224680452130E-01
 cg2d: Sum(rhs),rhsMax =  -1.47479040119049E-04  1.32236967336767E-01
 cg2d: Sum(rhs),rhsMax =  -1.46980206552484E-04  1.32249261353831E-01
 cg2d: Sum(rhs),rhsMax =  -1.46481697685691E-04  1.32261562479159E-01
 cg2d: Sum(rhs),rhsMax =  -1.45983518508227E-04  1.32273870688577E-01
 cg2d: Sum(rhs),rhsMax =  -1.45485673687272E-04  1.32286185957893E-01
 cg2d: Sum(rhs),rhsMax =  -1.44988168308442E-04  1.32298508262903E-01
 cg2d: Sum(rhs),rhsMax =  -1.44491007122091E-04  1.32310837579387E-01
 cg2d: Sum(rhs),rhsMax =  -1.43994195219179E-04  1.32323173883113E-01
 cg2d: Sum(rhs),rhsMax =  -1.43497737592595E-04  1.32335517149830E-01
 cg2d: Sum(rhs),rhsMax =  -1.43001639267344E-04  1.32347867355279E-01
 cg2d: Sum(rhs),rhsMax =  -1.42505905533864E-04  1.32360224475183E-01
 cg2d: Sum(rhs),rhsMax =  -1.42010541486192E-04  1.32372588485251E-01
 cg2d: Sum(rhs),rhsMax =  -1.41515552453690E-04  1.32384959361178E-01
 cg2d: Sum(rhs),rhsMax =  -1.41020943640833E-04  1.32397337078647E-01
 cg2d: Sum(rhs),rhsMax =  -1.40526720449308E-04  1.32409721613326E-01
 cg2d: Sum(rhs),rhsMax =  -1.40032888296985E-04  1.32422112940867E-01
 cg2d: Sum(rhs),rhsMax =  -1.39539452614038E-04  1.32434511036910E-01
 cg2d: Sum(rhs),rhsMax =  -1.38917773608481E-04  1.32446915995372E-01
 cg2d: Sum(rhs),rhsMax =  -1.38296747077129E-04  1.32459327564887E-01
 cg2d: Sum(rhs),rhsMax =  -1.37676328879338E-04  1.32471745825794E-01
(PID.TID 0000.0001)      cg2d_init_res =   1.22901989569235E-03
(PID.TID 0000.0001)      cg2d_iters(min,last) =      -1      73
(PID.TID 0000.0001)      cg2d_last_res =   9.88725816088638E-08
(PID.TID 0000.0001) // =======================================================
(PID.TID 0000.0001) // Begin MONITOR dynamic field statistics
(PID.TID 0000.0001) // =======================================================
(PID.TID 0000.0001) %MON time_tsnumber                =                  8640
(PID.TID 0000.0001) %MON time_secondsf                =   1.0368000000000E+07
(PID.TID 0000.0001) %MON dynstat_eta_max              =   4.0949315594027E-02
(PID.TID 0000.0001) %MON dynstat_eta_min              =  -2.5432193845690E-02
(PID.TID 0000.0001) %MON dynstat_eta_mean             =   9.0789106540321E-08
(PID.TID 0000.0001) %MON dynstat_eta_sd               =   1.8423589890945E-02
(PID.TID 0000.0001) %MON dynstat_eta_del2             =   1.7686799958882E-05
(PID.TID 0000.0001) %MON dynstat_uvel_max             =   3.0599582553754E-02
(PID.TID 0000.0001) %MON dynstat_uvel_min             =  -1.6535942133375E-02
(PID.TID 0000.0001) %MON dynstat_uvel_mean            =  -2.7946201547222E-07
(PID.TID 0000.0001) %MON dynstat_uvel_sd              =   7.6554747319721E-03
(PID.TID 0000.0001) %MON dynstat_uvel_del2            =   8.7718277804432E-06
(PID.TID 0000.0001) %MON dynstat_vvel_max             =   7.9382894213202E-02
(PID.TID 0000.0001) %MON dynstat_vvel_min             =  -3.1669196139461E-02
(PID.TID 0000.0001) %MON dynstat_vvel_mean            =  -1.1302226163364E-09
(PID.TID 0000.0001) %MON dynstat_vvel_sd              =   1.4852152991127E-02
(PID.TID 0000.0001) %MON dynstat_vvel_del2            =   7.2899012842757E-05
(PID.TID 0000.0001) %MON dynstat_wvel_max             =   1.2585428029706E-08
(PID.TID 0000.0001) %MON dynstat_wvel_min             =  -1.5006522891927E-08
(PID.TID 0000.0001) %MON dynstat_wvel_mean            =   1.1636032266122E-21
(PID.TID 0000.0001) %MON dynstat_wvel_sd              =   6.4468850871365E-09
(PID.TID 0000.0001) %MON dynstat_wvel_del2            =   2.4907421158385E-12
(PID.TID 0000.0001) %MON dynstat_theta_max            =   2.0000000000000E+01
(PID.TID 0000.0001) %MON dynstat_theta_min            =   2.0000000000000E+01
(PID.TID 0000.0001) %MON dynstat_theta_mean           =   2.0000000000000E+01
(PID.TID 0000.0001) %MON dynstat_theta_sd             =   0.0000000000000E+00
(PID.TID 0000.0001) %MON dynstat_theta_del2           =   0.0000000000000E+00
(PID.TID 0000.0001) %MON dynstat_salt_max             =   3.0000000000000E+01
(PID.TID 0000.0001) %MON dynstat_salt_min             =   3.0000000000000E+01
(PID.TID 0000.0001) %MON dynstat_salt_mean            =   3.0000000000000E+01
(PID.TID 0000.0001) %MON dynstat_salt_sd              =   0.0000000000000E+00
(PID.TID 0000.0001) %MON dynstat_salt_del2            =   0.0000000000000E+00
(PID.TID 0000.0001) %MON trAdv_CFL_u_max              =   1.8358592461781E-03
(PID.TID 0000.0001) %MON trAdv_CFL_v_max              =   4.7625189863279E-03
(PID.TID 0000.0001) %MON trAdv_CFL_w_max              =   3.0197608971968E-09
(PID.TID 0000.0001) %MON advcfl_uvel_max              =   1.8359749532253E-03
(PID.TID 0000.0001) %MON advcfl_vvel_max              =   4.7629736527921E-03
(PID.TID 0000.0001) %MON advcfl_wvel_max              =   7.2031309881248E-09
(PID.TID 0000.0001) %MON advcfl_W_hf_max              =   0.0000000000000E+00
(PID.TID 0000.0001) %MON pe_b_mean                    =   3.3297951985289E-07
(PID.TID 0000.0001) %MON ke_max                       =   3.1500337972731E-03
(PID.TID 0000.0001) %MON ke_mean                      =   1.3726976477822E-04
(PID.TID 0000.0001) %MON ke_vol                       =   7.2000000000000E+15
(PID.TID 0000.0001) %MON vort_r_min                   =  -1.4516329735815E-06
(PID.TID 0000.0001) %MON vort_r_max                   =   2.2199650381192E-06
(PID.TID 0000.0001) %MON vort_a_mean                  =   1.0600000000000E-04
(PID.TID 0000.0001) %MON vort_a_sd                    =   3.5364861619028E-06
(PID.TID 0000.0001) %MON vort_p_mean                  =   1.1130000000000E-04
(PID.TID 0000.0001) %MON vort_p_sd                    =   4.1152920128874E-05
(PID.TID 0000.0001) %MON surfExpan_theta_mean         =   2.3274656276347E-20
(PID.TID 0000.0001) %MON surfExpan_salt_mean          =   3.4912596270765E-20
(PID.TID 0000.0001) // =======================================================
(PID.TID 0000.0001) // End MONITOR dynamic field statistics
(PID.TID 0000.0001) // =======================================================
 cg2d: Sum(rhs),rhsMax =  -1.37056534431293E-04  1.32484170757345E-01
 cg2d: Sum(rhs),rhsMax =  -1.36437366616664E-04  1.32496602335386E-01
 cg2d: Sum(rhs),rhsMax =  -1.35818834721173E-04  1.32509040535485E-01
 cg2d: Sum(rhs),rhsMax =  -1.35200950722241E-04  1.32521485332861E-01
 cg2d: Sum(rhs),rhsMax =  -1.34583727176220E-04  1.32533936703030E-01
 cg2d: Sum(rhs),rhsMax =  -1.33967175383057E-04  1.32546394621697E-01
 cg2d: Sum(rhs),rhsMax =  -1.33351305487266E-04  1.32558859064552E-01
 cg2d: Sum(rhs),rhsMax =  -1.32736127216735E-04  1.32571330007155E-01
 cg2d: Sum(rhs),rhsMax =  -1.32121650416425E-04  1.32583807424959E-01
 cg2d: Sum(rhs),rhsMax =  -1.31507885507419E-04  1.32596291293366E-01
 cg2d: Sum(rhs),rhsMax =  -1.30894843566050E-04  1.32608781587779E-01
 cg2d: Sum(rhs),rhsMax =  -1.30282535850471E-04  1.32621278283620E-01
 cg2d: Sum(rhs),rhsMax =  -1.29670974127064E-04  1.32633781356320E-01
 cg2d: Sum(rhs),rhsMax =  -1.29060169993489E-04  1.32646290781303E-01
 cg2d: Sum(rhs),rhsMax =  -1.28450135468773E-04  1.32658806533981E-01
 cg2d: Sum(rhs),rhsMax =  -1.27840882867302E-04  1.32671328589742E-01
 cg2d: Sum(rhs),rhsMax =  -1.27232424449814E-04  1.32683856923961E-01
 cg2d: Sum(rhs),rhsMax =  -1.26624773083998E-04  1.32696391511997E-01
 cg2d: Sum(rhs),rhsMax =  -1.26017941898050E-04  1.32708932329198E-01
 cg2d: Sum(rhs),rhsMax =  -1.25411944200281E-04  1.32721479350900E-01
 cg2d: Sum(rhs),rhsMax =  -1.24806793760107E-04  1.32734032552428E-01
 cg2d: Sum(rhs),rhsMax =  -1.24202504652249E-04  1.32746591909094E-01
 cg2d: Sum(rhs),rhsMax =  -1.23599091195154E-04  1.32759157396195E-01
 cg2d: Sum(rhs),rhsMax =  -1.22996568154886E-04  1.32771728989021E-01
 cg2d: Sum(rhs),rhsMax =  -1.22394950654873E-04  1.32784306662842E-01
 cg2d: Sum(rhs),rhsMax =  -1.21794254109665E-04  1.32796890392920E-01
 cg2d: Sum(rhs),rhsMax =  -1.21194494542541E-04  1.32809480154506E-01
 cg2d: Sum(rhs),rhsMax =  -1.20595688218944E-04  1.32822075922837E-01
 cg2d: Sum(rhs),rhsMax =  -1.18898856946841E-04  1.32834677564307E-01
 cg2d: Sum(rhs),rhsMax =  -1.17214256282024E-04  1.32847285226633E-01
 cg2d: Sum(rhs),rhsMax =  -1.15541986156082E-04  1.32859898891447E-01
 cg2d: Sum(rhs),rhsMax =  -1.13882167020681E-04  1.32872518489596E-01
 cg2d: Sum(rhs),rhsMax =  -1.12234877353274E-04  1.32885143971124E-01
 cg2d: Sum(rhs),rhsMax =  -1.10600155868690E-04  1.32897775302142E-01
 cg2d: Sum(rhs),rhsMax =  -1.08978029811669E-04  1.32910412458169E-01
 cg2d: Sum(rhs),rhsMax =  -1.07368531246891E-04  1.32923055417781E-01
 cg2d: Sum(rhs),rhsMax =  -1.05771700901057E-04  1.32935704159485E-01
 cg2d: Sum(rhs),rhsMax =  -1.04187585116728E-04  1.32948358660460E-01
 cg2d: Sum(rhs),rhsMax =  -1.02616232783521E-04  1.32961018896346E-01
 cg2d: Sum(rhs),rhsMax =  -1.01057691883616E-04  1.32973684841719E-01
 cg2d: Sum(rhs),rhsMax =  -9.94394261631696E-05  1.32986356505053E-01
 cg2d: Sum(rhs),rhsMax =  -9.78352408692058E-05  1.32999033780652E-01
 cg2d: Sum(rhs),rhsMax =  -9.62451415839416E-05  1.33011716698339E-01
 cg2d: Sum(rhs),rhsMax =  -9.46691801587927E-05  1.33024405232886E-01
 cg2d: Sum(rhs),rhsMax =  -9.31073914667759E-05  1.33037099351340E-01
 cg2d: Sum(rhs),rhsMax =  -9.15598107882306E-05  1.33049799027319E-01
 cg2d: Sum(rhs),rhsMax =  -9.00264728780961E-05  1.33062504236112E-01
 cg2d: Sum(rhs),rhsMax =  -8.85074122090324E-05  1.33075214953182E-01
 cg2d: Sum(rhs),rhsMax =  -8.70026630048898E-05  1.33087931153821E-01
 cg2d: Sum(rhs),rhsMax =  -8.55122597123838E-05  1.33100652813141E-01
 cg2d: Sum(rhs),rhsMax =  -8.40362369225901E-05  1.33113379906132E-01
 cg2d: Sum(rhs),rhsMax =  -8.25746287944290E-05  1.33126112407720E-01
 cg2d: Sum(rhs),rhsMax =  -8.11274695672829E-05  1.33138850292796E-01
 cg2d: Sum(rhs),rhsMax =  -7.96947929009428E-05  1.33151593536267E-01
 cg2d: Sum(rhs),rhsMax =  -7.82766323810177E-05  1.33164342113048E-01
 cg2d: Sum(rhs),rhsMax =  -7.68730213227750E-05  1.33177095998063E-01
 cg2d: Sum(rhs),rhsMax =  -7.54839928884697E-05  1.33189855166236E-01
 cg2d: Sum(rhs),rhsMax =  -7.41095799790302E-05  1.33202619592471E-01
 cg2d: Sum(rhs),rhsMax =  -7.27006318330592E-05  1.33215389426354E-01
 cg2d: Sum(rhs),rhsMax =  -7.13071896111632E-05  1.33228164295293E-01
 cg2d: Sum(rhs),rhsMax =  -6.99293267428782E-05  1.33240944341970E-01
 cg2d: Sum(rhs),rhsMax =  -6.85670549508046E-05  1.33253729551165E-01
 cg2d: Sum(rhs),rhsMax =  -6.72203958683171E-05  1.33266519893528E-01
 cg2d: Sum(rhs),rhsMax =  -6.58893736699322E-05  1.33279315342247E-01
 cg2d: Sum(rhs),rhsMax =  -6.45740120925895E-05  1.33292115872269E-01
 cg2d: Sum(rhs),rhsMax =  -6.32743337069331E-05  1.33304921458827E-01
 cg2d: Sum(rhs),rhsMax =  -6.19903610541645E-05  1.33317732077024E-01
 cg2d: Sum(rhs),rhsMax =  -6.07221164049499E-05  1.33330547701791E-01
 cg2d: Sum(rhs),rhsMax =  -5.94696222273646E-05  1.33343368307941E-01
 cg2d: Sum(rhs),rhsMax =  -5.82329009206550E-05  1.33356193870216E-01
 cg2d: Sum(rhs),rhsMax =  -5.70119744103407E-05  1.33369024363335E-01
 cg2d: Sum(rhs),rhsMax =  -5.58068643487205E-05  1.33381859762018E-01
(PID.TID 0000.0001)      cg2d_init_res =   1.21355855038840E-03
(PID.TID 0000.0001)      cg2d_iters(min,last) =      -1      64
(PID.TID 0000.0001)      cg2d_last_res =   9.09094256095763E-08
(PID.TID 0000.0001) // =======================================================
(PID.TID 0000.0001) // Begin MONITOR dynamic field statistics
(PID.TID 0000.0001) // =======================================================
(PID.TID 0000.0001) %MON time_tsnumber                =                  8712
(PID.TID 0000.0001) %MON time_secondsf                =   1.0454400000000E+07
(PID.TID 0000.0001) %MON dynstat_eta_max              =   4.1633635450697E-02
(PID.TID 0000.0001) %MON dynstat_eta_min              =  -2.5502910242672E-02
(PID.TID 0000.0001) %MON dynstat_eta_mean             =   3.6428486689625E-08
(PID.TID 0000.0001) %MON dynstat_eta_sd               =   1.8734762799117E-02
(PID.TID 0000.0001) %MON dynstat_eta_del2             =   1.7692926830389E-05
(PID.TID 0000.0001) %MON dynstat_uvel_max             =   3.0741343293651E-02
(PID.TID 0000.0001) %MON dynstat_uvel_min             =  -1.6627211800994E-02
(PID.TID 0000.0001) %MON dynstat_uvel_mean            =  -2.8537598741417E-07
(PID.TID 0000.0001) %MON dynstat_uvel_sd              =   7.7136659282675E-03
(PID.TID 0000.0001) %MON dynstat_uvel_del2            =   8.8077090211169E-06
(PID.TID 0000.0001) %MON dynstat_vvel_max             =   7.9940277186999E-02
(PID.TID 0000.0001) %MON dynstat_vvel_min             =  -3.1393851557262E-02
(PID.TID 0000.0001) %MON dynstat_vvel_mean            =   2.3517564535376E-10
(PID.TID 0000.0001) %MON dynstat_vvel_sd              =   1.4915425015055E-02
(PID.TID 0000.0001) %MON dynstat_vvel_del2            =   7.3086663496953E-05
(PID.TID 0000.0001) %MON dynstat_wvel_max             =   1.2742475352425E-08
(PID.TID 0000.0001) %MON dynstat_wvel_min             =  -1.5403002885869E-08
(PID.TID 0000.0001) %MON dynstat_wvel_mean            =   4.1880685586193E-21
(PID.TID 0000.0001) %MON dynstat_wvel_sd              =   6.4278830720933E-09
(PID.TID 0000.0001) %MON dynstat_wvel_del2            =   2.4778536505283E-12
(PID.TID 0000.0001) %MON dynstat_theta_max            =   2.0000000000000E+01
(PID.TID 0000.0001) %MON dynstat_theta_min            =   2.0000000000000E+01
(PID.TID 0000.0001) %MON dynstat_theta_mean           =   2.0000000000000E+01
(PID.TID 0000.0001) %MON dynstat_theta_sd             =   0.0000000000000E+00
(PID.TID 0000.0001) %MON dynstat_theta_del2           =   0.0000000000000E+00
(PID.TID 0000.0001) %MON dynstat_salt_max             =   3.0000000000000E+01
(PID.TID 0000.0001) %MON dynstat_salt_min             =   3.0000000000000E+01
(PID.TID 0000.0001) %MON dynstat_salt_mean            =   3.0000000000000E+01
(PID.TID 0000.0001) %MON dynstat_salt_sd              =   0.0000000000000E+00
(PID.TID 0000.0001) %MON dynstat_salt_del2            =   0.0000000000000E+00
(PID.TID 0000.0001) %MON trAdv_CFL_u_max              =   1.8443602962423E-03
(PID.TID 0000.0001) %MON trAdv_CFL_v_max              =   4.7959433374255E-03
(PID.TID 0000.0001) %MON trAdv_CFL_w_max              =   3.0579091419932E-09
(PID.TID 0000.0001) %MON advcfl_uvel_max              =   1.8444805976190E-03
(PID.TID 0000.0001) %MON advcfl_vvel_max              =   4.7964166312199E-03
(PID.TID 0000.0001) %MON advcfl_wvel_max              =   7.3934413852170E-09
(PID.TID 0000.0001) %MON advcfl_W_hf_max              =   0.0000000000000E+00
(PID.TID 0000.0001) %MON pe_b_mean                    =   3.4432250173484E-07
(PID.TID 0000.0001) %MON ke_max                       =   3.1950357340016E-03
(PID.TID 0000.0001) %MON ke_mean                      =   1.3863551821109E-04
(PID.TID 0000.0001) %MON ke_vol                       =   7.2000000000000E+15
(PID.TID 0000.0001) %MON vort_r_min                   =  -1.4479290184544E-06
(PID.TID 0000.0001) %MON vort_r_max                   =   2.2370787155357E-06
(PID.TID 0000.0001) %MON vort_a_mean                  =   1.0600000000000E-04
(PID.TID 0000.0001) %MON vort_a_sd                    =   3.5365926133310E-06
(PID.TID 0000.0001) %MON vort_p_mean                  =   1.1130000000000E-04
(PID.TID 0000.0001) %MON vort_p_sd                    =   4.1152902983777E-05
(PID.TID 0000.0001) %MON surfExpan_theta_mean         =   8.3760514573644E-20
(PID.TID 0000.0001) %MON surfExpan_salt_mean          =   1.2563982447015E-19
(PID.TID 0000.0001) // =======================================================
(PID.TID 0000.0001) // End MONITOR dynamic field statistics
(PID.TID 0000.0001) // =======================================================
 cg2d: Sum(rhs),rhsMax =  -5.46175922681181E-05  1.33394700041001E-01
 cg2d: Sum(rhs),rhsMax =  -5.34441792799691E-05  1.33407545175029E-01
 cg2d: Sum(rhs),rhsMax =  -5.22866464210646E-05  1.33420395138840E-01
 cg2d: Sum(rhs),rhsMax =  -5.11450144385223E-05  1.33433249907165E-01
 cg2d: Sum(rhs),rhsMax =  -5.00193039472191E-05  1.33446109454721E-01
 cg2d: Sum(rhs),rhsMax =  -4.88754416548935E-05  1.33458973657181E-01
 cg2d: Sum(rhs),rhsMax =  -4.77482013967814E-05  1.33471842695937E-01
 cg2d: Sum(rhs),rhsMax =  -4.66376009381616E-05  1.33484716430139E-01
 cg2d: Sum(rhs),rhsMax =  -4.55436538131125E-05  1.33497594844046E-01
 cg2d: Sum(rhs),rhsMax =  -4.44663694467674E-05  1.33510477911237E-01
 cg2d: Sum(rhs),rhsMax =  -4.34057627338932E-05  1.33523365605004E-01
 cg2d: Sum(rhs),rhsMax =  -4.23618473887957E-05  1.33536257900012E-01
 cg2d: Sum(rhs),rhsMax =  -4.13346361192776E-05  1.33549154771303E-01
 cg2d: Sum(rhs),rhsMax =  -4.03241409000317E-05  1.33562056193783E-01
 cg2d: Sum(rhs),rhsMax =  -3.93303736182732E-05  1.33574962142182E-01
 cg2d: Sum(rhs),rhsMax =  -3.83533464700572E-05  1.33587872591112E-01
 cg2d: Sum(rhs),rhsMax =  -3.73930713137936E-05  1.33600787515134E-01
 cg2d: Sum(rhs),rhsMax =  -3.64495601282346E-05  1.33613706888794E-01
 cg2d: Sum(rhs),rhsMax =  -3.55228241697755E-05  1.33626630686652E-01
 cg2d: Sum(rhs),rhsMax =  -3.46128748709654E-05  1.33639558883278E-01
 cg2d: Sum(rhs),rhsMax =  -3.37197232659070E-05  1.33652491453248E-01
 cg2d: Sum(rhs),rhsMax =  -3.28433803916915E-05  1.33665428371136E-01
 cg2d: Sum(rhs),rhsMax =  -3.19838568049848E-05  1.33678369611501E-01
 cg2d: Sum(rhs),rhsMax =  -3.11411632865233E-05  1.33691315148892E-01
 cg2d: Sum(rhs),rhsMax =  -3.03153099451758E-05  1.33704264957842E-01
 cg2d: Sum(rhs),rhsMax =  -2.95063070668965E-05  1.33717219012876E-01
 cg2d: Sum(rhs),rhsMax =  -2.87141646615518E-05  1.33730177288513E-01
 cg2d: Sum(rhs),rhsMax =  -2.79388922865059E-05  1.33743139759261E-01
 cg2d: Sum(rhs),rhsMax =  -2.71804998312050E-05  1.33756106399627E-01
 cg2d: Sum(rhs),rhsMax =  -2.64389964822163E-05  1.33769077184105E-01
 cg2d: Sum(rhs),rhsMax =  -2.57143915274455E-05  1.33782052087185E-01
 cg2d: Sum(rhs),rhsMax =  -2.50066940640633E-05  1.33795031083345E-01
 cg2d: Sum(rhs),rhsMax =  -2.43159127653629E-05  1.33808014147059E-01
 cg2d: Sum(rhs),rhsMax =  -2.36420562724857E-05  1.33821001252791E-01
 cg2d: Sum(rhs),rhsMax =  -2.29851329960453E-05  1.33833992374996E-01
 cg2d: Sum(rhs),rhsMax =  -2.23451512913432E-05  1.33846987488124E-01
 cg2d: Sum(rhs),rhsMax =  -2.17221191515377E-05  1.33859986566617E-01
 cg2d: Sum(rhs),rhsMax =  -2.11160443878986E-05  1.33872989584908E-01
 cg2d: Sum(rhs),rhsMax =  -2.05269346611947E-05  1.33885996517424E-01
 cg2d: Sum(rhs),rhsMax =  -1.99547975212998E-05  1.33899007338584E-01
 cg2d: Sum(rhs),rhsMax =  -1.93996402245902E-05  1.33912022022799E-01
 cg2d: Sum(rhs),rhsMax =  -1.88614697723037E-05  1.33925040544475E-01
 cg2d: Sum(rhs),rhsMax =  -1.83402931027759E-05  1.33938062878008E-01
 cg2d: Sum(rhs),rhsMax =  -1.78361168710894E-05  1.33951088997789E-01
 cg2d: Sum(rhs),rhsMax =  -1.73489476082778E-05  1.33964118878200E-01
 cg2d: Sum(rhs),rhsMax =  -1.68787916832768E-05  1.33977152493616E-01
 cg2d: Sum(rhs),rhsMax =  -1.64256550300524E-05  1.33990189818409E-01
 cg2d: Sum(rhs),rhsMax =  -1.59895436608500E-05  1.34003230826939E-01
 cg2d: Sum(rhs),rhsMax =  -1.55704631963982E-05  1.34016275493561E-01
 cg2d: Sum(rhs),rhsMax =  -1.51684191797494E-05  1.34029323792623E-01
 cg2d: Sum(rhs),rhsMax =  -1.47834169303479E-05  1.34042375698468E-01
 cg2d: Sum(rhs),rhsMax =  -1.44154616214575E-05  1.34055431185429E-01
 cg2d: Sum(rhs),rhsMax =  -1.40645580948571E-05  1.34068490227836E-01
 cg2d: Sum(rhs),rhsMax =  -1.37307110433102E-05  1.34081552800009E-01
 cg2d: Sum(rhs),rhsMax =  -1.34056825613401E-05  1.34094618706978E-01
 cg2d: Sum(rhs),rhsMax =  -1.30981560673687E-05  1.34107688264237E-01
 cg2d: Sum(rhs),rhsMax =  -1.28081715733445E-05  1.34120761272803E-01
 cg2d: Sum(rhs),rhsMax =  -1.25357139699848E-05  1.34133837707368E-01
 cg2d: Sum(rhs),rhsMax =  -1.22807806259622E-05  1.34146917543936E-01
 cg2d: Sum(rhs),rhsMax =  -1.20433772681540E-05  1.34160000755624E-01
 cg2d: Sum(rhs),rhsMax =  -1.18235088588216E-05  1.34173087316556E-01
 cg2d: Sum(rhs),rhsMax =  -1.16211780105662E-05  1.34186177201314E-01
 cg2d: Sum(rhs),rhsMax =  -1.14363859531489E-05  1.34199270384407E-01
 cg2d: Sum(rhs),rhsMax =  -1.12691341841642E-05  1.34212366840184E-01
 cg2d: Sum(rhs),rhsMax =  -1.11194146371471E-05  1.34225587343734E-01
 cg2d: Sum(rhs),rhsMax =  -1.09872146765409E-05  1.34239112437859E-01
 cg2d: Sum(rhs),rhsMax =  -1.08725613441607E-05  1.34252640155935E-01
 cg2d: Sum(rhs),rhsMax =  -1.07754559174177E-05  1.34266170471892E-01
 cg2d: Sum(rhs),rhsMax =  -1.06958999441841E-05  1.34279703359667E-01
 cg2d: Sum(rhs),rhsMax =  -1.06338943291770E-05  1.34293238793200E-01
 cg2d: Sum(rhs),rhsMax =  -1.05894403859890E-05  1.34306776746433E-01
 cg2d: Sum(rhs),rhsMax =  -1.05625390412088E-05  1.34320317193300E-01
(PID.TID 0000.0001)      cg2d_init_res =   1.19691517877162E-03
(PID.TID 0000.0001)      cg2d_iters(min,last) =      -1      62
(PID.TID 0000.0001)      cg2d_last_res =   9.70732905966592E-08
(PID.TID 0000.0001) // =======================================================
(PID.TID 0000.0001) // Begin MONITOR dynamic field statistics
(PID.TID 0000.0001) // =======================================================
(PID.TID 0000.0001) %MON time_tsnumber                =                  8784
(PID.TID 0000.0001) %MON time_secondsf                =   1.0540800000000E+07
(PID.TID 0000.0001) %MON dynstat_eta_max              =   4.2370138248679E-02
(PID.TID 0000.0001) %MON dynstat_eta_min              =  -2.5522944952540E-02
(PID.TID 0000.0001) %MON dynstat_eta_mean             =   7.0882545550484E-09
(PID.TID 0000.0001) %MON dynstat_eta_sd               =   1.9029103835052E-02
(PID.TID 0000.0001) %MON dynstat_eta_del2             =   1.7703531279100E-05
(PID.TID 0000.0001) %MON dynstat_uvel_max             =   3.0887888879169E-02
(PID.TID 0000.0001) %MON dynstat_uvel_min             =  -1.6714962763666E-02
(PID.TID 0000.0001) %MON dynstat_uvel_mean            =  -2.8776874362322E-07
(PID.TID 0000.0001) %MON dynstat_uvel_sd              =   7.7609475295371E-03
(PID.TID 0000.0001) %MON dynstat_uvel_del2            =   8.8353806835393E-06
(PID.TID 0000.0001) %MON dynstat_vvel_max             =   8.0525288189117E-02
(PID.TID 0000.0001) %MON dynstat_vvel_min             =  -3.1133068949855E-02
(PID.TID 0000.0001) %MON dynstat_vvel_mean            =   1.6307701851901E-09
(PID.TID 0000.0001) %MON dynstat_vvel_sd              =   1.4981667485767E-02
(PID.TID 0000.0001) %MON dynstat_vvel_del2            =   7.3292438122823E-05
(PID.TID 0000.0001) %MON dynstat_wvel_max             =   1.2858895181562E-08
(PID.TID 0000.0001) %MON dynstat_wvel_min             =  -1.5774781352375E-08
(PID.TID 0000.0001) %MON dynstat_wvel_mean            =  -1.8934845987436E-22
(PID.TID 0000.0001) %MON dynstat_wvel_sd              =   6.4065071527199E-09
(PID.TID 0000.0001) %MON dynstat_wvel_del2            =   2.4745006008939E-12
(PID.TID 0000.0001) %MON dynstat_theta_max            =   2.0000000000000E+01
(PID.TID 0000.0001) %MON dynstat_theta_min            =   2.0000000000000E+01
(PID.TID 0000.0001) %MON dynstat_theta_mean           =   2.0000000000000E+01
(PID.TID 0000.0001) %MON dynstat_theta_sd             =   0.0000000000000E+00
(PID.TID 0000.0001) %MON dynstat_theta_del2           =   0.0000000000000E+00
(PID.TID 0000.0001) %MON dynstat_salt_max             =   3.0000000000000E+01
(PID.TID 0000.0001) %MON dynstat_salt_min             =   3.0000000000000E+01
(PID.TID 0000.0001) %MON dynstat_salt_mean            =   3.0000000000000E+01
(PID.TID 0000.0001) %MON dynstat_salt_sd              =   0.0000000000000E+00
(PID.TID 0000.0001) %MON dynstat_salt_del2            =   0.0000000000000E+00
(PID.TID 0000.0001) %MON trAdv_CFL_u_max              =   1.8531496453003E-03
(PID.TID 0000.0001) %MON trAdv_CFL_v_max              =   4.8310199380789E-03
(PID.TID 0000.0001) %MON trAdv_CFL_w_max              =   3.0859258100856E-09
(PID.TID 0000.0001) %MON advcfl_uvel_max              =   1.8532733327501E-03
(PID.TID 0000.0001) %MON advcfl_vvel_max              =   4.8315172913470E-03
(PID.TID 0000.0001) %MON advcfl_wvel_max              =   7.5718950491399E-09
(PID.TID 0000.0001) %MON advcfl_W_hf_max              =   0.0000000000000E+00
(PID.TID 0000.0001) %MON pe_b_mean                    =   3.5522676370271E-07
(PID.TID 0000.0001) %MON ke_max                       =   3.2418512027233E-03
(PID.TID 0000.0001) %MON ke_mean                      =   1.3996897808578E-04
(PID.TID 0000.0001) %MON ke_vol                       =   7.2000000000000E+15
(PID.TID 0000.0001) %MON vort_r_min                   =  -1.4443338023462E-06
(PID.TID 0000.0001) %MON vort_r_max                   =   2.2543854393331E-06
(PID.TID 0000.0001) %MON vort_a_mean                  =   1.0600000000000E-04
(PID.TID 0000.0001) %MON vort_a_sd                    =   3.5367054508820E-06
(PID.TID 0000.0001) %MON vort_p_mean                  =   1.1130000000000E-04
(PID.TID 0000.0001) %MON vort_p_sd                    =   4.1152869334116E-05
(PID.TID 0000.0001) %MON surfExpan_theta_mean         =  -3.7876664767585E-21
(PID.TID 0000.0001) %MON surfExpan_salt_mean          =  -5.6813812913485E-21
(PID.TID 0000.0001) // =======================================================
(PID.TID 0000.0001) // End MONITOR dynamic field statistics
(PID.TID 0000.0001) // =======================================================
 cg2d: Sum(rhs),rhsMax =  -1.05531912536986E-05  1.34333860107728E-01
 cg2d: Sum(rhs),rhsMax =  -1.05613976138031E-05  1.34347405463636E-01
 cg2d: Sum(rhs),rhsMax =  -1.05871589675564E-05  1.34360953234935E-01
 cg2d: Sum(rhs),rhsMax =  -1.06304758114564E-05  1.34374503395531E-01
 cg2d: Sum(rhs),rhsMax =  -1.06913485698060E-05  1.34388055919330E-01
 cg2d: Sum(rhs),rhsMax =  -1.07697776184131E-05  1.34401610780229E-01
 cg2d: Sum(rhs),rhsMax =  -1.08657630921603E-05  1.34415167952124E-01
 cg2d: Sum(rhs),rhsMax =  -1.09793050345934E-05  1.34428727408903E-01
 cg2d: Sum(rhs),rhsMax =  -1.11104033590189E-05  1.34442289124453E-01
 cg2d: Sum(rhs),rhsMax =  -1.12590580654383E-05  1.34455853072654E-01
 cg2d: Sum(rhs),rhsMax =  -1.14252686466863E-05  1.34469419227382E-01
 cg2d: Sum(rhs),rhsMax =  -1.16090347019723E-05  1.34482987562507E-01
 cg2d: Sum(rhs),rhsMax =  -1.18103556436006E-05  1.34496558051898E-01
 cg2d: Sum(rhs),rhsMax =  -1.20292305744911E-05  1.34510130669417E-01
 cg2d: Sum(rhs),rhsMax =  -1.22656586876973E-05  1.34523705388921E-01
 cg2d: Sum(rhs),rhsMax =  -1.25196386316856E-05  1.34537282184267E-01
 cg2d: Sum(rhs),rhsMax =  -1.27911691350504E-05  1.34550861029303E-01
 cg2d: Sum(rhs),rhsMax =  -1.30802487089705E-05  1.34564441897876E-01
 cg2d: Sum(rhs),rhsMax =  -1.33868755159078E-05  1.34578024763828E-01
 cg2d: Sum(rhs),rhsMax =  -1.37110475990085E-05  1.34591609600997E-01
 cg2d: Sum(rhs),rhsMax =  -1.40527627188495E-05  1.34605196383216E-01
 cg2d: Sum(rhs),rhsMax =  -1.44120182900866E-05  1.34618785084317E-01
 cg2d: Sum(rhs),rhsMax =  -1.47888116186464E-05  1.34632375678125E-01
 cg2d: Sum(rhs),rhsMax =  -1.51831394830521E-05  1.34645968138464E-01
 cg2d: Sum(rhs),rhsMax =  -1.55949984243457E-05  1.34659562439153E-01
 cg2d: Sum(rhs),rhsMax =  -1.60243845908166E-05  1.34673158554005E-01
 cg2d: Sum(rhs),rhsMax =  -1.64712937248176E-05  1.34686756456836E-01
 cg2d: Sum(rhs),rhsMax =  -1.69357212071418E-05  1.34700356121452E-01
 cg2d: Sum(rhs),rhsMax =  -1.74176618567400E-05  1.34713957521657E-01
 cg2d: Sum(rhs),rhsMax =  -1.79171098309526E-05  1.34727560631255E-01
 cg2d: Sum(rhs),rhsMax =  -1.84340590909287E-05  1.34741165424043E-01
 cg2d: Sum(rhs),rhsMax =  -1.89685027505290E-05  1.34754771873818E-01
 cg2d: Sum(rhs),rhsMax =  -1.95204330242487E-05  1.34768379954370E-01
 cg2d: Sum(rhs),rhsMax =  -2.00898417902920E-05  1.34781989639489E-01
 cg2d: Sum(rhs),rhsMax =  -2.06767199321164E-05  1.34795600902961E-01
 cg2d: Sum(rhs),rhsMax =  -2.12810575077353E-05  1.34809213718568E-01
 cg2d: Sum(rhs),rhsMax =  -2.19028435183965E-05  1.34822828060091E-01
 cg2d: Sum(rhs),rhsMax =  -2.25420660202522E-05  1.34836443901307E-01
 cg2d: Sum(rhs),rhsMax =  -2.31987118290162E-05  1.34850061215990E-01
 cg2d: Sum(rhs),rhsMax =  -2.38727664831125E-05  1.34863679977912E-01
 cg2d: Sum(rhs),rhsMax =  -2.45642142595974E-05  1.34877300160843E-01
 cg2d: Sum(rhs),rhsMax =  -2.52730379132309E-05  1.34890921738549E-01
 cg2d: Sum(rhs),rhsMax =  -2.59992183894763E-05  1.34904544684794E-01
 cg2d: Sum(rhs),rhsMax =  -2.67427350684694E-05  1.34918168973341E-01
 cg2d: Sum(rhs),rhsMax =  -2.75035652577632E-05  1.34931794577948E-01
 cg2d: Sum(rhs),rhsMax =  -2.82816839763649E-05  1.34945421472373E-01
 cg2d: Sum(rhs),rhsMax =  -2.90770642324490E-05  1.34959049630370E-01
 cg2d: Sum(rhs),rhsMax =  -2.98896764436641E-05  1.34972679025694E-01
 cg2d: Sum(rhs),rhsMax =  -3.07194882240664E-05  1.34986309632094E-01
 cg2d: Sum(rhs),rhsMax =  -3.15664641419716E-05  1.34999941423320E-01
 cg2d: Sum(rhs),rhsMax =  -3.24305658593168E-05  1.35013574373118E-01
 cg2d: Sum(rhs),rhsMax =  -3.33117511457717E-05  1.35027208455236E-01
 cg2d: Sum(rhs),rhsMax =  -3.42099745209521E-05  1.35040843643415E-01
 cg2d: Sum(rhs),rhsMax =  -3.51251860677103E-05  1.35054479911398E-01
 cg2d: Sum(rhs),rhsMax =  -3.60573319483489E-05  1.35068117232927E-01
 cg2d: Sum(rhs),rhsMax =  -3.70063535062946E-05  1.35081755581739E-01
 cg2d: Sum(rhs),rhsMax =  -3.79721872951922E-05  1.35095394931572E-01
 cg2d: Sum(rhs),rhsMax =  -3.89547647898884E-05  1.35109035256164E-01
 cg2d: Sum(rhs),rhsMax =  -3.99540117208344E-05  1.35122676529249E-01
 cg2d: Sum(rhs),rhsMax =  -4.09319566687053E-05  1.35136318915711E-01
 cg2d: Sum(rhs),rhsMax =  -4.19252036529417E-05  1.35149962017990E-01
 cg2d: Sum(rhs),rhsMax =  -4.29336114402814E-05  1.35163605984006E-01
 cg2d: Sum(rhs),rhsMax =  -4.39570564434158E-05  1.35177250793199E-01
 cg2d: Sum(rhs),rhsMax =  -4.49953992616142E-05  1.35190896418238E-01
 cg2d: Sum(rhs),rhsMax =  -4.60484857865411E-05  1.35204542834450E-01
 cg2d: Sum(rhs),rhsMax =  -4.71161562947200E-05  1.35218190016058E-01
 cg2d: Sum(rhs),rhsMax =  -4.81982473726373E-05  1.35231837936523E-01
 cg2d: Sum(rhs),rhsMax =  -4.92945910617769E-05  1.35245486569277E-01
 cg2d: Sum(rhs),rhsMax =  -5.04050147372625E-05  1.35259135887917E-01
 cg2d: Sum(rhs),rhsMax =  -5.15293416917910E-05  1.35272785866153E-01
 cg2d: Sum(rhs),rhsMax =  -5.26673927981267E-05  1.35286436477724E-01
 cg2d: Sum(rhs),rhsMax =  -5.38189879955714E-05  1.35300087696372E-01
(PID.TID 0000.0001)      cg2d_init_res =   1.17911355251402E-03
(PID.TID 0000.0001)      cg2d_iters(min,last) =      -1      63
(PID.TID 0000.0001)      cg2d_last_res =   9.13934219400205E-08
(PID.TID 0000.0001) // =======================================================
(PID.TID 0000.0001) // Begin MONITOR dynamic field statistics
(PID.TID 0000.0001) // =======================================================
(PID.TID 0000.0001) %MON time_tsnumber                =                  8856
(PID.TID 0000.0001) %MON time_secondsf                =   1.0627200000000E+07
(PID.TID 0000.0001) %MON dynstat_eta_max              =   4.3151849131607E-02
(PID.TID 0000.0001) %MON dynstat_eta_min              =  -2.5491781352648E-02
(PID.TID 0000.0001) %MON dynstat_eta_mean             =   3.7200417891581E-08
(PID.TID 0000.0001) %MON dynstat_eta_sd               =   1.9303707753732E-02
(PID.TID 0000.0001) %MON dynstat_eta_del2             =   1.7718460391273E-05
(PID.TID 0000.0001) %MON dynstat_uvel_max             =   3.1044387524893E-02
(PID.TID 0000.0001) %MON dynstat_uvel_min             =  -1.6797662311882E-02
(PID.TID 0000.0001) %MON dynstat_uvel_mean            =  -2.8661183614889E-07
(PID.TID 0000.0001) %MON dynstat_uvel_sd              =   7.7968570160686E-03
(PID.TID 0000.0001) %MON dynstat_uvel_del2            =   8.8547322578423E-06
(PID.TID 0000.0001) %MON dynstat_vvel_max             =   8.1127160108247E-02
(PID.TID 0000.0001) %MON dynstat_vvel_min             =  -3.0889676603185E-02
(PID.TID 0000.0001) %MON dynstat_vvel_mean            =   3.0388205818152E-09
(PID.TID 0000.0001) %MON dynstat_vvel_sd              =   1.5050002353269E-02
(PID.TID 0000.0001) %MON dynstat_vvel_del2            =   7.3513760022303E-05
(PID.TID 0000.0001) %MON dynstat_wvel_max             =   1.2862499557414E-08
(PID.TID 0000.0001) %MON dynstat_wvel_min             =  -1.6056895375950E-08
(PID.TID 0000.0001) %MON dynstat_wvel_mean            =   1.6057411913708E-21
(PID.TID 0000.0001) %MON dynstat_wvel_sd              =   6.3829513230074E-09
(PID.TID 0000.0001) %MON dynstat_wvel_del2            =   2.4685013235975E-12
(PID.TID 0000.0001) %MON dynstat_theta_max            =   2.0000000000000E+01
(PID.TID 0000.0001) %MON dynstat_theta_min            =   2.0000000000000E+01
(PID.TID 0000.0001) %MON dynstat_theta_mean           =   2.0000000000000E+01
(PID.TID 0000.0001) %MON dynstat_theta_sd             =   0.0000000000000E+00
(PID.TID 0000.0001) %MON dynstat_theta_del2           =   0.0000000000000E+00
(PID.TID 0000.0001) %MON dynstat_salt_max             =   3.0000000000000E+01
(PID.TID 0000.0001) %MON dynstat_salt_min             =   3.0000000000000E+01
(PID.TID 0000.0001) %MON dynstat_salt_mean            =   3.0000000000000E+01
(PID.TID 0000.0001) %MON dynstat_salt_sd              =   0.0000000000000E+00
(PID.TID 0000.0001) %MON dynstat_salt_del2            =   0.0000000000000E+00
(PID.TID 0000.0001) %MON trAdv_CFL_u_max              =   1.8625235553613E-03
(PID.TID 0000.0001) %MON trAdv_CFL_v_max              =   4.8671247563671E-03
(PID.TID 0000.0001) %MON trAdv_CFL_w_max              =   3.0868092981458E-09
(PID.TID 0000.0001) %MON advcfl_uvel_max              =   1.8626632514936E-03
(PID.TID 0000.0001) %MON advcfl_vvel_max              =   4.8676296064948E-03
(PID.TID 0000.0001) %MON advcfl_wvel_max              =   7.7073097804561E-09
(PID.TID 0000.0001) %MON advcfl_W_hf_max              =   0.0000000000000E+00
(PID.TID 0000.0001) %MON pe_b_mean                    =   3.6555310351504E-07
(PID.TID 0000.0001) %MON ke_max                       =   3.2900528104302E-03
(PID.TID 0000.0001) %MON ke_mean                      =   1.4125266220359E-04
(PID.TID 0000.0001) %MON ke_vol                       =   7.2000000000000E+15
(PID.TID 0000.0001) %MON vort_r_min                   =  -1.4408578276135E-06
(PID.TID 0000.0001) %MON vort_r_max                   =   2.2717118593296E-06
(PID.TID 0000.0001) %MON vort_a_mean                  =   1.0600000000000E-04
(PID.TID 0000.0001) %MON vort_a_sd                    =   3.5368232805428E-06
(PID.TID 0000.0001) %MON vort_p_mean                  =   1.1130000000000E-04
(PID.TID 0000.0001) %MON vort_p_sd                    =   4.1152819175643E-05
(PID.TID 0000.0001) %MON surfExpan_theta_mean         =   3.2114360553553E-20
(PID.TID 0000.0001) %MON surfExpan_salt_mean          =   4.8171560567627E-20
(PID.TID 0000.0001) // =======================================================
(PID.TID 0000.0001) // End MONITOR dynamic field statistics
(PID.TID 0000.0001) // =======================================================
 cg2d: Sum(rhs),rhsMax =  -5.49839477382496E-05  1.35313739495832E-01
 cg2d: Sum(rhs),rhsMax =  -5.61620951463849E-05  1.35327391849834E-01
 cg2d: Sum(rhs),rhsMax =  -5.73532576082772E-05  1.35341044732100E-01
 cg2d: Sum(rhs),rhsMax =  -5.85572692649410E-05  1.35354698116344E-01
 cg2d: Sum(rhs),rhsMax =  -5.97739727883967E-05  1.35368351976274E-01
 cg2d: Sum(rhs),rhsMax =  -6.10032224569023E-05  1.35382006285597E-01
 cg2d: Sum(rhs),rhsMax =  -6.22448857770137E-05  1.35395661018017E-01
 cg2d: Sum(rhs),rhsMax =  -6.34988462979973E-05  1.35409316147238E-01
 cg2d: Sum(rhs),rhsMax =  -6.47650054101459E-05  1.35422971646962E-01
 cg2d: Sum(rhs),rhsMax =  -6.60432842614295E-05  1.35436627490892E-01
 cg2d: Sum(rhs),rhsMax =  -6.73336255516037E-05  1.35450283652723E-01
 cg2d: Sum(rhs),rhsMax =  -6.86359947783917E-05  1.35463940106154E-01
 cg2d: Sum(rhs),rhsMax =  -6.99503808565000E-05  1.35477596824874E-01
 cg2d: Sum(rhs),rhsMax =  -7.12084999527950E-05  1.35491253934855E-01
 cg2d: Sum(rhs),rhsMax =  -7.24775789160050E-05  1.35504911105289E-01
 cg2d: Sum(rhs),rhsMax =  -7.37576386528058E-05  1.35518568468499E-01
 cg2d: Sum(rhs),rhsMax =  -7.50488205815180E-05  1.35532225989962E-01
 cg2d: Sum(rhs),rhsMax =  -7.63512907559563E-05  1.35545883643308E-01
 cg2d: Sum(rhs),rhsMax =  -7.76652368884257E-05  1.35559541404197E-01
 cg2d: Sum(rhs),rhsMax =  -7.89908610169332E-05  1.35573199246809E-01
 cg2d: Sum(rhs),rhsMax =  -8.03283756129871E-05  1.35586857144564E-01
 cg2d: Sum(rhs),rhsMax =  -8.16780014471540E-05  1.35600515070856E-01
 cg2d: Sum(rhs),rhsMax =  -8.30399653715718E-05  1.35614172999252E-01
 cg2d: Sum(rhs),rhsMax =  -8.44144977218851E-05  1.35627830903432E-01
 cg2d: Sum(rhs),rhsMax =  -8.58018287012490E-05  1.35641488757110E-01
 cg2d: Sum(rhs),rhsMax =  -8.72021858226166E-05  1.35655146533999E-01
 cg2d: Sum(rhs),rhsMax =  -8.86157902555643E-05  1.35668804207809E-01
 cg2d: Sum(rhs),rhsMax =  -9.00428555275614E-05  1.35682461752247E-01
 cg2d: Sum(rhs),rhsMax =  -9.14835852976158E-05  1.35696119141023E-01
 cg2d: Sum(rhs),rhsMax =  -9.29381718484321E-05  1.35709776347839E-01
 cg2d: Sum(rhs),rhsMax =  -9.43284011691043E-05  1.35723433125301E-01
 cg2d: Sum(rhs),rhsMax =  -9.57321631645542E-05  1.35737089877340E-01
 cg2d: Sum(rhs),rhsMax =  -9.71496411906504E-05  1.35750746385136E-01
 cg2d: Sum(rhs),rhsMax =  -9.85809392087976E-05  1.35764402602355E-01
 cg2d: Sum(rhs),rhsMax =  -1.00026183098668E-04  1.35778058504458E-01
 cg2d: Sum(rhs),rhsMax =  -1.01485484036323E-04  1.35791714066910E-01
 cg2d: Sum(rhs),rhsMax =  -1.02958936123321E-04  1.35805369263762E-01
 cg2d: Sum(rhs),rhsMax =  -1.04446615947995E-04  1.35819024068579E-01
 cg2d: Sum(rhs),rhsMax =  -1.05948585240601E-04  1.35832678454900E-01
 cg2d: Sum(rhs),rhsMax =  -1.07464892362592E-04  1.35846332396365E-01
 cg2d: Sum(rhs),rhsMax =  -1.08995573826582E-04  1.35859985866682E-01
 cg2d: Sum(rhs),rhsMax =  -1.10540654947640E-04  1.35873638839584E-01
 cg2d: Sum(rhs),rhsMax =  -1.12100150642106E-04  1.35887291288807E-01
 cg2d: Sum(rhs),rhsMax =  -1.13576966314233E-04  1.35900943211669E-01
 cg2d: Sum(rhs),rhsMax =  -1.15066990801996E-04  1.35914594520836E-01
 cg2d: Sum(rhs),rhsMax =  -1.16570117499822E-04  1.35928245247333E-01
 cg2d: Sum(rhs),rhsMax =  -1.18086320021768E-04  1.35941895340188E-01
 cg2d: Sum(rhs),rhsMax =  -1.19615552195292E-04  1.35955544776615E-01
 cg2d: Sum(rhs),rhsMax =  -1.21157761375347E-04  1.35969193531795E-01
 cg2d: Sum(rhs),rhsMax =  -1.22712889416959E-04  1.35982841579681E-01
 cg2d: Sum(rhs),rhsMax =  -1.24280872380172E-04  1.35996488893935E-01
 cg2d: Sum(rhs),rhsMax =  -1.25861642576262E-04  1.36010135448202E-01
 cg2d: Sum(rhs),rhsMax =  -1.27331666051347E-04  1.36023780841221E-01
 cg2d: Sum(rhs),rhsMax =  -1.27614294117053E-04  1.36037426320449E-01
 cg2d: Sum(rhs),rhsMax =  -1.27896349545499E-04  1.36051070491315E-01
 cg2d: Sum(rhs),rhsMax =  -1.28177813576171E-04  1.36064713780317E-01
 cg2d: Sum(rhs),rhsMax =  -1.28458689518536E-04  1.36078356190379E-01
 cg2d: Sum(rhs),rhsMax =  -1.28738991662280E-04  1.36091997685210E-01
 cg2d: Sum(rhs),rhsMax =  -1.29018739781247E-04  1.36105638235501E-01
 cg2d: Sum(rhs),rhsMax =  -1.29297952346792E-04  1.36119277815354E-01
 cg2d: Sum(rhs),rhsMax =  -1.29576645233761E-04  1.36132916399298E-01
 cg2d: Sum(rhs),rhsMax =  -1.29854833691077E-04  1.36146553961437E-01
 cg2d: Sum(rhs),rhsMax =  -1.30132533183158E-04  1.36160190475514E-01
 cg2d: Sum(rhs),rhsMax =  -1.30409759527965E-04  1.36173825915191E-01
 cg2d: Sum(rhs),rhsMax =  -1.30686529057488E-04  1.36187460254205E-01
 cg2d: Sum(rhs),rhsMax =  -1.30962857958815E-04  1.36201093466368E-01
 cg2d: Sum(rhs),rhsMax =  -1.31238762453025E-04  1.36214725525509E-01
 cg2d: Sum(rhs),rhsMax =  -1.31514258864649E-04  1.36228356405436E-01
 cg2d: Sum(rhs),rhsMax =  -1.31789363415076E-04  1.36241986079937E-01
 cg2d: Sum(rhs),rhsMax =  -1.32064092357774E-04  1.36255614522795E-01
 cg2d: Sum(rhs),rhsMax =  -1.32338461858528E-04  1.36269241707803E-01
 cg2d: Sum(rhs),rhsMax =  -1.32612488155081E-04  1.36282867608761E-01
(PID.TID 0000.0001)      cg2d_init_res =   1.16066710493637E-03
(PID.TID 0000.0001)      cg2d_iters(min,last) =      -1      73
(PID.TID 0000.0001)      cg2d_last_res =   9.63962420502126E-08
(PID.TID 0000.0001) // =======================================================
(PID.TID 0000.0001) // Begin MONITOR dynamic field statistics
(PID.TID 0000.0001) // =======================================================
(PID.TID 0000.0001) %MON time_tsnumber                =                  8928
(PID.TID 0000.0001) %MON time_secondsf                =   1.0713600000000E+07
(PID.TID 0000.0001) %MON dynstat_eta_max              =   4.3971081044323E-02
(PID.TID 0000.0001) %MON dynstat_eta_min              =  -2.5409597935648E-02
(PID.TID 0000.0001) %MON dynstat_eta_mean             =   9.0559606131588E-08
(PID.TID 0000.0001) %MON dynstat_eta_sd               =   1.9555950453344E-02
(PID.TID 0000.0001) %MON dynstat_eta_del2             =   1.7737506910403E-05
(PID.TID 0000.0001) %MON dynstat_uvel_max             =   3.1213068798830E-02
(PID.TID 0000.0001) %MON dynstat_uvel_min             =  -1.6873793627789E-02
(PID.TID 0000.0001) %MON dynstat_uvel_mean            =  -2.8192512617427E-07
(PID.TID 0000.0001) %MON dynstat_uvel_sd              =   7.8210797004676E-03
(PID.TID 0000.0001) %MON dynstat_uvel_del2            =   8.8658439131404E-06
(PID.TID 0000.0001) %MON dynstat_vvel_max             =   8.1735045890207E-02
(PID.TID 0000.0001) %MON dynstat_vvel_min             =  -3.0666279889823E-02
(PID.TID 0000.0001) %MON dynstat_vvel_mean            =   4.4414761019842E-09
(PID.TID 0000.0001) %MON dynstat_vvel_sd              =   1.5119506268080E-02
(PID.TID 0000.0001) %MON dynstat_vvel_del2            =   7.3747854513827E-05
(PID.TID 0000.0001) %MON dynstat_wvel_max             =   1.2843535047396E-08
(PID.TID 0000.0001) %MON dynstat_wvel_min             =  -1.6322395638563E-08
(PID.TID 0000.0001) %MON dynstat_wvel_mean            =   3.4584551637333E-21
(PID.TID 0000.0001) %MON dynstat_wvel_sd              =   6.3575278586012E-09
(PID.TID 0000.0001) %MON dynstat_wvel_del2            =   2.4552307010589E-12
(PID.TID 0000.0001) %MON dynstat_theta_max            =   2.0000000000000E+01
(PID.TID 0000.0001) %MON dynstat_theta_min            =   2.0000000000000E+01
(PID.TID 0000.0001) %MON dynstat_theta_mean           =   2.0000000000000E+01
(PID.TID 0000.0001) %MON dynstat_theta_sd             =   0.0000000000000E+00
(PID.TID 0000.0001) %MON dynstat_theta_del2           =   0.0000000000000E+00
(PID.TID 0000.0001) %MON dynstat_salt_max             =   3.0000000000000E+01
(PID.TID 0000.0001) %MON dynstat_salt_min             =   3.0000000000000E+01
(PID.TID 0000.0001) %MON dynstat_salt_mean            =   3.0000000000000E+01
(PID.TID 0000.0001) %MON dynstat_salt_sd              =   0.0000000000000E+00
(PID.TID 0000.0001) %MON dynstat_salt_del2            =   0.0000000000000E+00
(PID.TID 0000.0001) %MON trAdv_CFL_u_max              =   1.8726429423973E-03
(PID.TID 0000.0001) %MON trAdv_CFL_v_max              =   4.9035953206029E-03
(PID.TID 0000.0001) %MON trAdv_CFL_w_max              =   3.0827160398941E-09
(PID.TID 0000.0001) %MON advcfl_uvel_max              =   1.8727841279298E-03
(PID.TID 0000.0001) %MON advcfl_vvel_max              =   4.9041027534124E-03
(PID.TID 0000.0001) %MON advcfl_wvel_max              =   7.8347499065101E-09
(PID.TID 0000.0001) %MON advcfl_W_hf_max              =   0.0000000000000E+00
(PID.TID 0000.0001) %MON pe_b_mean                    =   3.7516892937717E-07
(PID.TID 0000.0001) %MON ke_max                       =   3.3391876810619E-03
(PID.TID 0000.0001) %MON ke_mean                      =   1.4246963912928E-04
(PID.TID 0000.0001) %MON ke_vol                       =   7.2000000000000E+15
(PID.TID 0000.0001) %MON vort_r_min                   =  -1.4375090382550E-06
(PID.TID 0000.0001) %MON vort_r_max                   =   2.2888845954598E-06
(PID.TID 0000.0001) %MON vort_a_mean                  =   1.0600000000000E-04
(PID.TID 0000.0001) %MON vort_a_sd                    =   3.5369446321079E-06
(PID.TID 0000.0001) %MON vort_p_mean                  =   1.1130000000000E-04
(PID.TID 0000.0001) %MON vort_p_sd                    =   4.1152752696600E-05
(PID.TID 0000.0001) %MON surfExpan_theta_mean         =   6.9167387866603E-20
(PID.TID 0000.0001) %MON surfExpan_salt_mean          =   1.0375250288538E-19
(PID.TID 0000.0001) // =======================================================
(PID.TID 0000.0001) // End MONITOR dynamic field statistics
(PID.TID 0000.0001) // =======================================================
 cg2d: Sum(rhs),rhsMax =  -1.32886187568415E-04  1.36296492199477E-01
 cg2d: Sum(rhs),rhsMax =  -1.33159576091686E-04  1.36310115453754E-01
 cg2d: Sum(rhs),rhsMax =  -1.33432669897383E-04  1.36323737345400E-01
 cg2d: Sum(rhs),rhsMax =  -1.33705484888518E-04  1.36337357848224E-01
 cg2d: Sum(rhs),rhsMax =  -1.33978037157521E-04  1.36350976936041E-01
 cg2d: Sum(rhs),rhsMax =  -1.34250342390971E-04  1.36364594582672E-01
 cg2d: Sum(rhs),rhsMax =  -1.34522416494475E-04  1.36378210761942E-01
 cg2d: Sum(rhs),rhsMax =  -1.34794275016542E-04  1.36391825447683E-01
 cg2d: Sum(rhs),rhsMax =  -1.35065933597744E-04  1.36405438613733E-01
 cg2d: Sum(rhs),rhsMax =  -1.35337407596439E-04  1.36419050233926E-01
 cg2d: Sum(rhs),rhsMax =  -1.35608712324028E-04  1.36432660282104E-01
 cg2d: Sum(rhs),rhsMax =  -1.35879863046282E-04  1.36446268732108E-01
 cg2d: Sum(rhs),rhsMax =  -1.36150874706895E-04  1.36459875557788E-01
 cg2d: Sum(rhs),rhsMax =  -1.36421762309713E-04  1.36473480732993E-01
 cg2d: Sum(rhs),rhsMax =  -1.36692540549346E-04  1.36487084231582E-01
 cg2d: Sum(rhs),rhsMax =  -1.36963224152927E-04  1.36500686027413E-01
 cg2d: Sum(rhs),rhsMax =  -1.37233827481851E-04  1.36514286094353E-01
 cg2d: Sum(rhs),rhsMax =  -1.37504364866307E-04  1.36527884406272E-01
 cg2d: Sum(rhs),rhsMax =  -1.37660246786535E-04  1.36541480747154E-01
 cg2d: Sum(rhs),rhsMax =  -1.37816406624853E-04  1.36555075471573E-01
 cg2d: Sum(rhs),rhsMax =  -1.37972795896915E-04  1.36568668362976E-01
 cg2d: Sum(rhs),rhsMax =  -1.38129442763201E-04  1.36582259395803E-01
 cg2d: Sum(rhs),rhsMax =  -1.38286358124481E-04  1.36595848543767E-01
 cg2d: Sum(rhs),rhsMax =  -1.38443552416997E-04  1.36609435780118E-01
 cg2d: Sum(rhs),rhsMax =  -1.38601035712383E-04  1.36623021078534E-01
 cg2d: Sum(rhs),rhsMax =  -1.38758818197864E-04  1.36636604412976E-01
 cg2d: Sum(rhs),rhsMax =  -1.38916909005886E-04  1.36650185757437E-01
 cg2d: Sum(rhs),rhsMax =  -1.39075317778696E-04  1.36663765085852E-01
 cg2d: Sum(rhs),rhsMax =  -1.39234053559577E-04  1.36677342372125E-01
 cg2d: Sum(rhs),rhsMax =  -1.39393125289492E-04  1.36690917590159E-01
 cg2d: Sum(rhs),rhsMax =  -1.39552541819140E-04  1.36704490713879E-01
 cg2d: Sum(rhs),rhsMax =  -1.39712311774015E-04  1.36718061717224E-01
 cg2d: Sum(rhs),rhsMax =  -1.39872443455406E-04  1.36731630574145E-01
 cg2d: Sum(rhs),rhsMax =  -1.40032944983971E-04  1.36745197258596E-01
 cg2d: Sum(rhs),rhsMax =  -1.40193824412809E-04  1.36758761744538E-01
 cg2d: Sum(rhs),rhsMax =  -1.40355089527464E-04  1.36772324005928E-01
 cg2d: Sum(rhs),rhsMax =  -1.40516748109875E-04  1.36785884016732E-01
 cg2d: Sum(rhs),rhsMax =  -1.40678807389213E-04  1.36799441750917E-01
 cg2d: Sum(rhs),rhsMax =  -1.40841274738793E-04  1.36812997182456E-01
 cg2d: Sum(rhs),rhsMax =  -1.41004157246663E-04  1.36826550285327E-01
 cg2d: Sum(rhs),rhsMax =  -1.41167461885000E-04  1.36840101033515E-01
 cg2d: Sum(rhs),rhsMax =  -1.41331195238726E-04  1.36853649401012E-01
 cg2d: Sum(rhs),rhsMax =  -1.41495363992939E-04  1.36867195361817E-01
 cg2d: Sum(rhs),rhsMax =  -1.41659974533067E-04  1.36880738889935E-01
 cg2d: Sum(rhs),rhsMax =  -1.41825033138607E-04  1.36894279959377E-01
 cg2d: Sum(rhs),rhsMax =  -1.41990545909671E-04  1.36907818544159E-01
 cg2d: Sum(rhs),rhsMax =  -1.42156518720617E-04  1.36921354618305E-01
 cg2d: Sum(rhs),rhsMax =  -1.42322957333764E-04  1.36934888155843E-01
 cg2d: Sum(rhs),rhsMax =  -1.42489867394149E-04  1.36948419130806E-01
 cg2d: Sum(rhs),rhsMax =  -1.42657254349427E-04  1.36961947517237E-01
 cg2d: Sum(rhs),rhsMax =  -1.42825123557419E-04  1.36975473289180E-01
 cg2d: Sum(rhs),rhsMax =  -1.42993480029326E-04  1.36988996420690E-01
 cg2d: Sum(rhs),rhsMax =  -1.43162329072256E-04  1.37002516885827E-01
 cg2d: Sum(rhs),rhsMax =  -1.43331675367672E-04  1.37016034658655E-01
 cg2d: Sum(rhs),rhsMax =  -1.43501523773543E-04  1.37029549713251E-01
 cg2d: Sum(rhs),rhsMax =  -1.43671878801556E-04  1.37043062023692E-01
 cg2d: Sum(rhs),rhsMax =  -1.43842744848845E-04  1.37056571564064E-01
 cg2d: Sum(rhs),rhsMax =  -1.44014126251250E-04  1.37070078308462E-01
 cg2d: Sum(rhs),rhsMax =  -1.44186027316771E-04  1.37083582230986E-01
 cg2d: Sum(rhs),rhsMax =  -1.44358452090699E-04  1.37097083305740E-01
 cg2d: Sum(rhs),rhsMax =  -1.44531404420000E-04  1.37110581506839E-01
 cg2d: Sum(rhs),rhsMax =  -1.44704888213351E-04  1.37124076808404E-01
 cg2d: Sum(rhs),rhsMax =  -1.44878907194856E-04  1.37137569184561E-01
 cg2d: Sum(rhs),rhsMax =  -1.45053464780485E-04  1.37151058609446E-01
 cg2d: Sum(rhs),rhsMax =  -1.45228564425423E-04  1.37164545057199E-01
 cg2d: Sum(rhs),rhsMax =  -1.45404209627327E-04  1.37178028501970E-01
 cg2d: Sum(rhs),rhsMax =  -1.45580403338806E-04  1.37191508917916E-01
 cg2d: Sum(rhs),rhsMax =  -1.45757148782198E-04  1.37204986279199E-01
 cg2d: Sum(rhs),rhsMax =  -1.45934448919818E-04  1.37218460559991E-01
 cg2d: Sum(rhs),rhsMax =  -1.46112306638500E-04  1.37231931734469E-01
 cg2d: Sum(rhs),rhsMax =  -1.46290724710650E-04  1.37245399776818E-01
 cg2d: Sum(rhs),rhsMax =  -1.46469705624395E-04  1.37258864661234E-01
(PID.TID 0000.0001)      cg2d_init_res =   1.14186093114980E-03
(PID.TID 0000.0001)      cg2d_iters(min,last) =      -1      74
(PID.TID 0000.0001)      cg2d_last_res =   8.72165736692249E-08
(PID.TID 0000.0001) // =======================================================
(PID.TID 0000.0001) // Begin MONITOR dynamic field statistics
(PID.TID 0000.0001) // =======================================================
(PID.TID 0000.0001) %MON time_tsnumber                =                  9000
(PID.TID 0000.0001) %MON time_secondsf                =   1.0800000000000E+07
(PID.TID 0000.0001) %MON dynstat_eta_max              =   4.4820654641715E-02
(PID.TID 0000.0001) %MON dynstat_eta_min              =  -2.5277225418110E-02
(PID.TID 0000.0001) %MON dynstat_eta_mean             =   1.0065441996317E-07
(PID.TID 0000.0001) %MON dynstat_eta_sd               =   1.9783487017082E-02
(PID.TID 0000.0001) %MON dynstat_eta_del2             =   1.7760410741360E-05
(PID.TID 0000.0001) %MON dynstat_uvel_max             =   3.1382680732690E-02
(PID.TID 0000.0001) %MON dynstat_uvel_min             =  -1.6941878976632E-02
(PID.TID 0000.0001) %MON dynstat_uvel_mean            =  -2.7377798663716E-07
(PID.TID 0000.0001) %MON dynstat_uvel_sd              =   7.8334457248492E-03
(PID.TID 0000.0001) %MON dynstat_uvel_del2            =   8.8689736159380E-06
(PID.TID 0000.0001) %MON dynstat_vvel_max             =   8.2343017928113E-02
(PID.TID 0000.0001) %MON dynstat_vvel_min             =  -3.0465232082581E-02
(PID.TID 0000.0001) %MON dynstat_vvel_mean            =   5.8204654928831E-09
(PID.TID 0000.0001) %MON dynstat_vvel_sd              =   1.5189223999059E-02
(PID.TID 0000.0001) %MON dynstat_vvel_del2            =   7.3991791646883E-05
(PID.TID 0000.0001) %MON dynstat_wvel_max             =   1.2721659855742E-08
(PID.TID 0000.0001) %MON dynstat_wvel_min             =  -1.6524118194357E-08
(PID.TID 0000.0001) %MON dynstat_wvel_mean            =  -9.6275976425709E-22
(PID.TID 0000.0001) %MON dynstat_wvel_sd              =   6.3306513946240E-09
(PID.TID 0000.0001) %MON dynstat_wvel_del2            =   2.4459447031944E-12
(PID.TID 0000.0001) %MON dynstat_theta_max            =   2.0000000000000E+01
(PID.TID 0000.0001) %MON dynstat_theta_min            =   2.0000000000000E+01
(PID.TID 0000.0001) %MON dynstat_theta_mean           =   2.0000000000000E+01
(PID.TID 0000.0001) %MON dynstat_theta_sd             =   0.0000000000000E+00
(PID.TID 0000.0001) %MON dynstat_theta_del2           =   0.0000000000000E+00
(PID.TID 0000.0001) %MON dynstat_salt_max             =   3.0000000000000E+01
(PID.TID 0000.0001) %MON dynstat_salt_min             =   3.0000000000000E+01
(PID.TID 0000.0001) %MON dynstat_salt_mean            =   3.0000000000000E+01
(PID.TID 0000.0001) %MON dynstat_salt_sd              =   0.0000000000000E+00
(PID.TID 0000.0001) %MON dynstat_salt_del2            =   0.0000000000000E+00
(PID.TID 0000.0001) %MON trAdv_CFL_u_max              =   1.8828195812854E-03
(PID.TID 0000.0001) %MON trAdv_CFL_v_max              =   4.9400760147273E-03
(PID.TID 0000.0001) %MON trAdv_CFL_w_max              =   3.0534661964513E-09
(PID.TID 0000.0001) %MON advcfl_uvel_max              =   1.8829608439614E-03
(PID.TID 0000.0001) %MON advcfl_vvel_max              =   4.9405810756868E-03
(PID.TID 0000.0001) %MON advcfl_wvel_max              =   7.9315767332911E-09
(PID.TID 0000.0001) %MON advcfl_W_hf_max              =   0.0000000000000E+00
(PID.TID 0000.0001) %MON pe_b_mean                    =   3.8395001775245E-07
(PID.TID 0000.0001) %MON ke_max                       =   3.3887819229584E-03
(PID.TID 0000.0001) %MON ke_mean                      =   1.4360373719893E-04
(PID.TID 0000.0001) %MON ke_vol                       =   7.2000000000000E+15
(PID.TID 0000.0001) %MON vort_r_min                   =  -1.4342928750672E-06
(PID.TID 0000.0001) %MON vort_r_max                   =   2.3057322117042E-06
(PID.TID 0000.0001) %MON vort_a_mean                  =   1.0600000000000E-04
(PID.TID 0000.0001) %MON vort_a_sd                    =   3.5370679777553E-06
(PID.TID 0000.0001) %MON vort_p_mean                  =   1.1130000000000E-04
(PID.TID 0000.0001) %MON vort_p_sd                    =   4.1152670275949E-05
(PID.TID 0000.0001) %MON surfExpan_theta_mean         =  -1.9255745146533E-20
(PID.TID 0000.0001) %MON surfExpan_salt_mean          =  -2.8883618953380E-20
(PID.TID 0000.0001) // =======================================================
(PID.TID 0000.0001) // End MONITOR dynamic field statistics
(PID.TID 0000.0001) // =======================================================
 cg2d: Sum(rhs),rhsMax =  -1.46649252095336E-04  1.37272326361915E-01
 cg2d: Sum(rhs),rhsMax =  -1.46829366426827E-04  1.37285784853071E-01
 cg2d: Sum(rhs),rhsMax =  -1.47010051081373E-04  1.37299240108919E-01
 cg2d: Sum(rhs),rhsMax =  -1.47191308245665E-04  1.37312692103682E-01
 cg2d: Sum(rhs),rhsMax =  -1.47373139847173E-04  1.37326140811590E-01
 cg2d: Sum(rhs),rhsMax =  -1.47555548166336E-04  1.37339586206886E-01
 cg2d: Sum(rhs),rhsMax =  -1.47738535081058E-04  1.37353028263816E-01
 cg2d: Sum(rhs),rhsMax =  -1.47922102379208E-04  1.37366466956635E-01
 cg2d: Sum(rhs),rhsMax =  -1.48106251843694E-04  1.37379902259609E-01
 cg2d: Sum(rhs),rhsMax =  -1.48290985010702E-04  1.37393334147006E-01
 cg2d: Sum(rhs),rhsMax =  -1.48476303550782E-04  1.37406762593110E-01
 cg2d: Sum(rhs),rhsMax =  -1.48662208832505E-04  1.37420187572206E-01
 cg2d: Sum(rhs),rhsMax =  -1.48848702308764E-04  1.37433609058593E-01
 cg2d: Sum(rhs),rhsMax =  -1.49035785229241E-04  1.37447027026574E-01
 cg2d: Sum(rhs),rhsMax =  -1.49223458793079E-04  1.37460441450464E-01
 cg2d: Sum(rhs),rhsMax =  -1.49411724191102E-04  1.37473852304584E-01
 cg2d: Sum(rhs),rhsMax =  -1.49600582355179E-04  1.37487259563264E-01
 cg2d: Sum(rhs),rhsMax =  -1.49790034211762E-04  1.37500663200842E-01
 cg2d: Sum(rhs),rhsMax =  -1.49980080746132E-04  1.37514063191667E-01
 cg2d: Sum(rhs),rhsMax =  -1.50170722706159E-04  1.37527459510096E-01
 cg2d: Sum(rhs),rhsMax =  -1.50361960763047E-04  1.37540852130491E-01
 cg2d: Sum(rhs),rhsMax =  -1.50553795518899E-04  1.37554241027228E-01
 cg2d: Sum(rhs),rhsMax =  -1.50746227720696E-04  1.37567626174689E-01
 cg2d: Sum(rhs),rhsMax =  -1.50939257782081E-04  1.37581007547265E-01
 cg2d: Sum(rhs),rhsMax =  -1.51132885904592E-04  1.37594385119356E-01
 cg2d: Sum(rhs),rhsMax =  -1.51327112685088E-04  1.37607758865374E-01
 cg2d: Sum(rhs),rhsMax =  -1.51521938312415E-04  1.37621128759736E-01
 cg2d: Sum(rhs),rhsMax =  -1.51717362884682E-04  1.37634494776870E-01
 cg2d: Sum(rhs),rhsMax =  -1.51913386726447E-04  1.37647856891213E-01
 cg2d: Sum(rhs),rhsMax =  -1.52110009726524E-04  1.37661215077211E-01
 cg2d: Sum(rhs),rhsMax =  -1.52307231882377E-04  1.37674569309320E-01
 cg2d: Sum(rhs),rhsMax =  -1.52505053209983E-04  1.37687919562005E-01
 cg2d: Sum(rhs),rhsMax =  -1.52703473543217E-04  1.37701265809742E-01
 cg2d: Sum(rhs),rhsMax =  -1.52902492779911E-04  1.37714608027011E-01
 cg2d: Sum(rhs),rhsMax =  -1.53102110506147E-04  1.37727946188309E-01
 cg2d: Sum(rhs),rhsMax =  -1.53302326469751E-04  1.37741280268137E-01
 cg2d: Sum(rhs),rhsMax =  -1.53503140266809E-04  1.37754610241010E-01
 cg2d: Sum(rhs),rhsMax =  -1.53704551507703E-04  1.37767936081449E-01
 cg2d: Sum(rhs),rhsMax =  -1.53906559538359E-04  1.37781257763988E-01
 cg2d: Sum(rhs),rhsMax =  -1.54109164031003E-04  1.37794575263167E-01
 cg2d: Sum(rhs),rhsMax =  -1.54312364199579E-04  1.37807888553539E-01
 cg2d: Sum(rhs),rhsMax =  -1.54516159436650E-04  1.37821197609665E-01
 cg2d: Sum(rhs),rhsMax =  -1.54720548985807E-04  1.37834502406119E-01
 cg2d: Sum(rhs),rhsMax =  -1.54925532075942E-04  1.37847802917482E-01
 cg2d: Sum(rhs),rhsMax =  -1.55131107820311E-04  1.37861099118346E-01
 cg2d: Sum(rhs),rhsMax =  -1.55337275421880E-04  1.37874390983313E-01
 cg2d: Sum(rhs),rhsMax =  -1.55544034030885E-04  1.37887678486999E-01
 cg2d: Sum(rhs),rhsMax =  -1.55751382331746E-04  1.37900961604022E-01
 cg2d: Sum(rhs),rhsMax =  -1.55959319566795E-04  1.37914240309019E-01
 cg2d: Sum(rhs),rhsMax =  -1.56167844672389E-04  1.37927514576633E-01
 cg2d: Sum(rhs),rhsMax =  -1.56376956340901E-04  1.37940784381517E-01
 cg2d: Sum(rhs),rhsMax =  -1.56586653466429E-04  1.37954049698337E-01
 cg2d: Sum(rhs),rhsMax =  -1.56796934794352E-04  1.37967310501768E-01
 cg2d: Sum(rhs),rhsMax =  -1.57007799030620E-04  1.37980566766495E-01
 cg2d: Sum(rhs),rhsMax =  -1.57219244884412E-04  1.37993818467216E-01
 cg2d: Sum(rhs),rhsMax =  -1.57431271045873E-04  1.38007065578639E-01
 cg2d: Sum(rhs),rhsMax =  -1.57643876073281E-04  1.38020308075480E-01
 cg2d: Sum(rhs),rhsMax =  -1.57857058500254E-04  1.38033545932470E-01
 cg2d: Sum(rhs),rhsMax =  -1.58070816854915E-04  1.38046779124349E-01
 cg2d: Sum(rhs),rhsMax =  -1.58285149589381E-04  1.38060007625867E-01
 cg2d: Sum(rhs),rhsMax =  -1.58500055152707E-04  1.38073231411787E-01
 cg2d: Sum(rhs),rhsMax =  -1.58715531924643E-04  1.38086450456881E-01
 cg2d: Sum(rhs),rhsMax =  -1.58931578187005E-04  1.38099664735935E-01
 cg2d: Sum(rhs),rhsMax =  -1.59148192376147E-04  1.38112874223743E-01
 cg2d: Sum(rhs),rhsMax =  -1.59365372659502E-04  1.38126078895113E-01
 cg2d: Sum(rhs),rhsMax =  -1.59583117270139E-04  1.38139278724862E-01
 cg2d: Sum(rhs),rhsMax =  -1.59801424431683E-04  1.38152473687821E-01
 cg2d: Sum(rhs),rhsMax =  -1.60020292415050E-04  1.38165663758829E-01
 cg2d: Sum(rhs),rhsMax =  -1.60239719209800E-04  1.38178848912741E-01
 cg2d: Sum(rhs),rhsMax =  -1.60459702930027E-04  1.38192029124419E-01
 cg2d: Sum(rhs),rhsMax =  -1.60680241684820E-04  1.38205204368739E-01
 cg2d: Sum(rhs),rhsMax =  -1.60901333415872E-04  1.38218374620589E-01
(PID.TID 0000.0001)      cg2d_init_res =   1.12299878066069E-03
(PID.TID 0000.0001)      cg2d_iters(min,last) =      -1      75
(PID.TID 0000.0001)      cg2d_last_res =   7.51157519138850E-08
(PID.TID 0000.0001) // =======================================================
(PID.TID 0000.0001) // Begin MONITOR dynamic field statistics
(PID.TID 0000.0001) // =======================================================
(PID.TID 0000.0001) %MON time_tsnumber                =                  9072
(PID.TID 0000.0001) %MON time_secondsf                =   1.0886400000000E+07
(PID.TID 0000.0001) %MON dynstat_eta_max              =   4.5713819292589E-02
(PID.TID 0000.0001) %MON dynstat_eta_min              =  -2.5095996244664E-02
(PID.TID 0000.0001) %MON dynstat_eta_mean             =   1.1131460928245E-07
(PID.TID 0000.0001) %MON dynstat_eta_sd               =   1.9984249915725E-02
(PID.TID 0000.0001) %MON dynstat_eta_del2             =   1.7786861372006E-05
(PID.TID 0000.0001) %MON dynstat_uvel_max             =   3.1551516784106E-02
(PID.TID 0000.0001) %MON dynstat_uvel_min             =  -1.7000502089384E-02
(PID.TID 0000.0001) %MON dynstat_uvel_mean            =  -2.6227629131789E-07
(PID.TID 0000.0001) %MON dynstat_uvel_sd              =   7.8339255705139E-03
(PID.TID 0000.0001) %MON dynstat_uvel_del2            =   8.8645391339783E-06
(PID.TID 0000.0001) %MON dynstat_vvel_max             =   8.2945135719084E-02
(PID.TID 0000.0001) %MON dynstat_vvel_min             =  -3.0288607235030E-02
(PID.TID 0000.0001) %MON dynstat_vvel_mean            =   7.1581404968407E-09
(PID.TID 0000.0001) %MON dynstat_vvel_sd              =   1.5258183014922E-02
(PID.TID 0000.0001) %MON dynstat_vvel_del2            =   7.4242530161829E-05
(PID.TID 0000.0001) %MON dynstat_wvel_max             =   1.2572709093220E-08
(PID.TID 0000.0001) %MON dynstat_wvel_min             =  -1.6615710866172E-08
(PID.TID 0000.0001) %MON dynstat_wvel_mean            =  -9.2476309671636E-22
(PID.TID 0000.0001) %MON dynstat_wvel_sd              =   6.3028164946605E-09
(PID.TID 0000.0001) %MON dynstat_wvel_del2            =   2.4352223521431E-12
(PID.TID 0000.0001) %MON dynstat_theta_max            =   2.0000000000000E+01
(PID.TID 0000.0001) %MON dynstat_theta_min            =   2.0000000000000E+01
(PID.TID 0000.0001) %MON dynstat_theta_mean           =   2.0000000000000E+01
(PID.TID 0000.0001) %MON dynstat_theta_sd             =   0.0000000000000E+00
(PID.TID 0000.0001) %MON dynstat_theta_del2           =   0.0000000000000E+00
(PID.TID 0000.0001) %MON dynstat_salt_max             =   3.0000000000000E+01
(PID.TID 0000.0001) %MON dynstat_salt_min             =   3.0000000000000E+01
(PID.TID 0000.0001) %MON dynstat_salt_mean            =   3.0000000000000E+01
(PID.TID 0000.0001) %MON dynstat_salt_sd              =   0.0000000000000E+00
(PID.TID 0000.0001) %MON dynstat_salt_del2            =   0.0000000000000E+00
(PID.TID 0000.0001) %MON trAdv_CFL_u_max              =   1.8929510965908E-03
(PID.TID 0000.0001) %MON trAdv_CFL_v_max              =   4.9762103904092E-03
(PID.TID 0000.0001) %MON trAdv_CFL_w_max              =   3.0183918627212E-09
(PID.TID 0000.0001) %MON advcfl_uvel_max              =   1.8930910070463E-03
(PID.TID 0000.0001) %MON advcfl_vvel_max              =   4.9767081431451E-03
(PID.TID 0000.0001) %MON advcfl_wvel_max              =   7.9755412157625E-09
(PID.TID 0000.0001) %MON advcfl_W_hf_max              =   0.0000000000000E+00
(PID.TID 0000.0001) %MON pe_b_mean                    =   3.9178221005713E-07
(PID.TID 0000.0001) %MON ke_max                       =   3.4383459188037E-03
(PID.TID 0000.0001) %MON ke_mean                      =   1.4463974825811E-04
(PID.TID 0000.0001) %MON ke_vol                       =   7.2000000000000E+15
(PID.TID 0000.0001) %MON vort_r_min                   =  -1.4312123198409E-06
(PID.TID 0000.0001) %MON vort_r_max                   =   2.3220872848466E-06
(PID.TID 0000.0001) %MON vort_a_mean                  =   1.0600000000000E-04
(PID.TID 0000.0001) %MON vort_a_sd                    =   3.5371917520377E-06
(PID.TID 0000.0001) %MON vort_p_mean                  =   1.1130000000000E-04
(PID.TID 0000.0001) %MON vort_p_sd                    =   4.1152572481731E-05
(PID.TID 0000.0001) %MON surfExpan_theta_mean         =  -1.8499374871479E-20
(PID.TID 0000.0001) %MON surfExpan_salt_mean          =  -2.7748114916903E-20
(PID.TID 0000.0001) // =======================================================
(PID.TID 0000.0001) // End MONITOR dynamic field statistics
(PID.TID 0000.0001) // =======================================================
 cg2d: Sum(rhs),rhsMax =  -1.61055298195119E-04  1.38231539755631E-01
 cg2d: Sum(rhs),rhsMax =  -1.61209712067274E-04  1.38244699948091E-01
 cg2d: Sum(rhs),rhsMax =  -1.61364605822178E-04  1.38257855073572E-01
 cg2d: Sum(rhs),rhsMax =  -1.61519969277878E-04  1.38271005104887E-01
 cg2d: Sum(rhs),rhsMax =  -1.61675799205461E-04  1.38284150019339E-01
 cg2d: Sum(rhs),rhsMax =  -1.61832092652875E-04  1.38297289791510E-01
 cg2d: Sum(rhs),rhsMax =  -1.61988847040102E-04  1.38310424395836E-01
 cg2d: Sum(rhs),rhsMax =  -1.62146059913834E-04  1.38323553807173E-01
 cg2d: Sum(rhs),rhsMax =  -1.62303728583680E-04  1.38336678000562E-01
 cg2d: Sum(rhs),rhsMax =  -1.62461850320242E-04  1.38349796951030E-01
 cg2d: Sum(rhs),rhsMax =  -1.62620422599517E-04  1.38362910633578E-01
 cg2d: Sum(rhs),rhsMax =  -1.62779442671412E-04  1.38376019023213E-01
 cg2d: Sum(rhs),rhsMax =  -1.62938908273369E-04  1.38389122094976E-01
 cg2d: Sum(rhs),rhsMax =  -1.63098816589077E-04  1.38402219823933E-01
 cg2d: Sum(rhs),rhsMax =  -1.63259165094952E-04  1.38415312185165E-01
 cg2d: Sum(rhs),rhsMax =  -1.63419951015185E-04  1.38428399153762E-01
 cg2d: Sum(rhs),rhsMax =  -1.63581171714320E-04  1.38441480704824E-01
 cg2d: Sum(rhs),rhsMax =  -1.63742824656470E-04  1.38454556813456E-01
 cg2d: Sum(rhs),rhsMax =  -1.63904906993366E-04  1.38467627454780E-01
 cg2d: Sum(rhs),rhsMax =  -1.64067416103818E-04  1.38480692603923E-01
 cg2d: Sum(rhs),rhsMax =  -1.64230349252105E-04  1.38493752236028E-01
 cg2d: Sum(rhs),rhsMax =  -1.64393703917707E-04  1.38506806326252E-01
 cg2d: Sum(rhs),rhsMax =  -1.64557477091643E-04  1.38519854849764E-01
 cg2d: Sum(rhs),rhsMax =  -1.64721666306532E-04  1.38532897781747E-01
 cg2d: Sum(rhs),rhsMax =  -1.64886268750495E-04  1.38545935097400E-01
 cg2d: Sum(rhs),rhsMax =  -1.65051281702432E-04  1.38558966771932E-01
 cg2d: Sum(rhs),rhsMax =  -1.65216702478582E-04  1.38571992780570E-01
 cg2d: Sum(rhs),rhsMax =  -1.65382528310411E-04  1.38585013098549E-01
 cg2d: Sum(rhs),rhsMax =  -1.65548756422229E-04  1.38598027701123E-01
 cg2d: Sum(rhs),rhsMax =  -1.65715384162470E-04  1.38611036563551E-01
 cg2d: Sum(rhs),rhsMax =  -1.65882408539500E-04  1.38624039661112E-01
 cg2d: Sum(rhs),rhsMax =  -1.66049827110452E-04  1.38637036969096E-01
 cg2d: Sum(rhs),rhsMax =  -1.66217636940407E-04  1.38650028462803E-01
 cg2d: Sum(rhs),rhsMax =  -1.66385835235434E-04  1.38663014117555E-01
 cg2d: Sum(rhs),rhsMax =  -1.66554419202864E-04  1.38675993908679E-01
 cg2d: Sum(rhs),rhsMax =  -1.66723386232756E-04  1.38688967811521E-01
 cg2d: Sum(rhs),rhsMax =  -1.66892733341159E-04  1.38701935801439E-01
 cg2d: Sum(rhs),rhsMax =  -1.67062457944983E-04  1.38714897853805E-01
 cg2d: Sum(rhs),rhsMax =  -1.67232557171683E-04  1.38727853944006E-01
 cg2d: Sum(rhs),rhsMax =  -1.67403028197457E-04  1.38740804047441E-01
 cg2d: Sum(rhs),rhsMax =  -1.67573868353850E-04  1.38753748139524E-01
 cg2d: Sum(rhs),rhsMax =  -1.67745074737235E-04  1.38766686195683E-01
 cg2d: Sum(rhs),rhsMax =  -1.67916644556287E-04  1.38779618191359E-01
 cg2d: Sum(rhs),rhsMax =  -1.68088575109577E-04  1.38792544102008E-01
 cg2d: Sum(rhs),rhsMax =  -1.68260863622630E-04  1.38805463903101E-01
 cg2d: Sum(rhs),rhsMax =  -1.68433507196724E-04  1.38818377570122E-01
 cg2d: Sum(rhs),rhsMax =  -1.68606503149761E-04  1.38831285078570E-01
 cg2d: Sum(rhs),rhsMax =  -1.68779848582109E-04  1.38844186403956E-01
 cg2d: Sum(rhs),rhsMax =  -1.68953540853942E-04  1.38857081521809E-01
 cg2d: Sum(rhs),rhsMax =  -1.69127577024475E-04  1.38869970407671E-01
 cg2d: Sum(rhs),rhsMax =  -1.69301954369630E-04  1.38882853037097E-01
 cg2d: Sum(rhs),rhsMax =  -1.69476670100375E-04  1.38895729385660E-01
 cg2d: Sum(rhs),rhsMax =  -1.69651721433559E-04  1.38908599428944E-01
 cg2d: Sum(rhs),rhsMax =  -1.69827105647110E-04  1.38921463142549E-01
 cg2d: Sum(rhs),rhsMax =  -1.70002819792586E-04  1.38934320502090E-01
 cg2d: Sum(rhs),rhsMax =  -1.70178861213554E-04  1.38947171483199E-01
 cg2d: Sum(rhs),rhsMax =  -1.70355227110734E-04  1.38960016061517E-01
 cg2d: Sum(rhs),rhsMax =  -1.70531914758603E-04  1.38972854212705E-01
 cg2d: Sum(rhs),rhsMax =  -1.70708921261334E-04  1.38985685912437E-01
 cg2d: Sum(rhs),rhsMax =  -1.70886243992892E-04  1.38998511136402E-01
 cg2d: Sum(rhs),rhsMax =  -1.71063880039982E-04  1.39011329860307E-01
 cg2d: Sum(rhs),rhsMax =  -1.71241826653002E-04  1.39024142059868E-01
 cg2d: Sum(rhs),rhsMax =  -1.71420081272921E-04  1.39036947710821E-01
 cg2d: Sum(rhs),rhsMax =  -1.71598640917735E-04  1.39049746788916E-01
 cg2d: Sum(rhs),rhsMax =  -1.71777502927655E-04  1.39062539269919E-01
 cg2d: Sum(rhs),rhsMax =  -1.71956664474331E-04  1.39075325129609E-01
 cg2d: Sum(rhs),rhsMax =  -1.72136122878293E-04  1.39088104343782E-01
 cg2d: Sum(rhs),rhsMax =  -1.72315875432625E-04  1.39100876888252E-01
 cg2d: Sum(rhs),rhsMax =  -1.72495919405014E-04  1.39113642738840E-01
 cg2d: Sum(rhs),rhsMax =  -1.72676251984649E-04  1.39126401871394E-01
 cg2d: Sum(rhs),rhsMax =  -1.72856870441434E-04  1.39139154261769E-01
 cg2d: Sum(rhs),rhsMax =  -1.73037772130542E-04  1.39151899885840E-01
(PID.TID 0000.0001)      cg2d_init_res =   1.10439732828269E-03
(PID.TID 0000.0001)      cg2d_iters(min,last) =      -1      75
(PID.TID 0000.0001)      cg2d_last_res =   8.70099754634938E-08
(PID.TID 0000.0001) // =======================================================
(PID.TID 0000.0001) // Begin MONITOR dynamic field statistics
(PID.TID 0000.0001) // =======================================================
(PID.TID 0000.0001) %MON time_tsnumber                =                  9144
(PID.TID 0000.0001) %MON time_secondsf                =   1.0972800000000E+07
(PID.TID 0000.0001) %MON dynstat_eta_max              =   4.6620429667147E-02
(PID.TID 0000.0001) %MON dynstat_eta_min              =  -2.4867882586131E-02
(PID.TID 0000.0001) %MON dynstat_eta_mean             =   1.2052976600489E-07
(PID.TID 0000.0001) %MON dynstat_eta_sd               =   2.0156446652766E-02
(PID.TID 0000.0001) %MON dynstat_eta_del2             =   1.7816501180630E-05
(PID.TID 0000.0001) %MON dynstat_uvel_max             =   3.1717861267020E-02
(PID.TID 0000.0001) %MON dynstat_uvel_min             =  -1.7055187978916E-02
(PID.TID 0000.0001) %MON dynstat_uvel_mean            =  -2.4757007435226E-07
(PID.TID 0000.0001) %MON dynstat_uvel_sd              =   7.8226237881992E-03
(PID.TID 0000.0001) %MON dynstat_uvel_del2            =   8.8530954923751E-06
(PID.TID 0000.0001) %MON dynstat_vvel_max             =   8.3535514594323E-02
(PID.TID 0000.0001) %MON dynstat_vvel_min             =  -3.0138177473081E-02
(PID.TID 0000.0001) %MON dynstat_vvel_mean            =   8.4372641212999E-09
(PID.TID 0000.0001) %MON dynstat_vvel_sd              =   1.5325408469022E-02
(PID.TID 0000.0001) %MON dynstat_vvel_del2            =   7.4496961687344E-05
(PID.TID 0000.0001) %MON dynstat_wvel_max             =   1.2349270355189E-08
(PID.TID 0000.0001) %MON dynstat_wvel_min             =  -1.6721122162417E-08
(PID.TID 0000.0001) %MON dynstat_wvel_mean            =   2.9142399348024E-21
(PID.TID 0000.0001) %MON dynstat_wvel_sd              =   6.2745714503342E-09
(PID.TID 0000.0001) %MON dynstat_wvel_del2            =   2.4220950228810E-12
(PID.TID 0000.0001) %MON dynstat_theta_max            =   2.0000000000000E+01
(PID.TID 0000.0001) %MON dynstat_theta_min            =   2.0000000000000E+01
(PID.TID 0000.0001) %MON dynstat_theta_mean           =   2.0000000000000E+01
(PID.TID 0000.0001) %MON dynstat_theta_sd             =   0.0000000000000E+00
(PID.TID 0000.0001) %MON dynstat_theta_del2           =   0.0000000000000E+00
(PID.TID 0000.0001) %MON dynstat_salt_max             =   3.0000000000000E+01
(PID.TID 0000.0001) %MON dynstat_salt_min             =   3.0000000000000E+01
(PID.TID 0000.0001) %MON dynstat_salt_mean            =   3.0000000000000E+01
(PID.TID 0000.0001) %MON dynstat_salt_sd              =   0.0000000000000E+00
(PID.TID 0000.0001) %MON dynstat_salt_del2            =   0.0000000000000E+00
(PID.TID 0000.0001) %MON trAdv_CFL_u_max              =   1.9029345445362E-03
(PID.TID 0000.0001) %MON trAdv_CFL_v_max              =   5.0116452946585E-03
(PID.TID 0000.0001) %MON trAdv_CFL_w_max              =   2.9645186337177E-09
(PID.TID 0000.0001) %MON advcfl_uvel_max              =   1.9030716760212E-03
(PID.TID 0000.0001) %MON advcfl_vvel_max              =   5.0121308756594E-03
(PID.TID 0000.0001) %MON advcfl_wvel_max              =   8.0261386379600E-09
(PID.TID 0000.0001) %MON advcfl_W_hf_max              =   0.0000000000000E+00
(PID.TID 0000.0001) %MON pe_b_mean                    =   3.9856297718841E-07
(PID.TID 0000.0001) %MON ke_max                       =   3.4873800981012E-03
(PID.TID 0000.0001) %MON ke_mean                      =   1.4556361396992E-04
(PID.TID 0000.0001) %MON ke_vol                       =   7.2000000000000E+15
(PID.TID 0000.0001) %MON vort_r_min                   =  -1.4282679849685E-06
(PID.TID 0000.0001) %MON vort_r_max                   =   2.3377882939510E-06
(PID.TID 0000.0001) %MON vort_a_mean                  =   1.0600000000000E-04
(PID.TID 0000.0001) %MON vort_a_sd                    =   3.5373143725930E-06
(PID.TID 0000.0001) %MON vort_p_mean                  =   1.1130000000000E-04
(PID.TID 0000.0001) %MON vort_p_sd                    =   4.1152460065303E-05
(PID.TID 0000.0001) %MON surfExpan_theta_mean         =   5.8282188951529E-20
(PID.TID 0000.0001) %MON surfExpan_salt_mean          =   8.7421388646665E-20
(PID.TID 0000.0001) // =======================================================
(PID.TID 0000.0001) // End MONITOR dynamic field statistics
(PID.TID 0000.0001) // =======================================================
 cg2d: Sum(rhs),rhsMax =  -1.73218954334489E-04  1.39164638719494E-01
 cg2d: Sum(rhs),rhsMax =  -1.73400414259268E-04  1.39177370738640E-01
 cg2d: Sum(rhs),rhsMax =  -1.73582149246477E-04  1.39190095919195E-01
 cg2d: Sum(rhs),rhsMax =  -1.73764156629596E-04  1.39202814237097E-01
 cg2d: Sum(rhs),rhsMax =  -1.73946433679360E-04  1.39215525668299E-01
 cg2d: Sum(rhs),rhsMax =  -1.74128977690055E-04  1.39228230188769E-01
 cg2d: Sum(rhs),rhsMax =  -1.74311786024763E-04  1.39240927774493E-01
 cg2d: Sum(rhs),rhsMax =  -1.74494855920592E-04  1.39253618401470E-01
 cg2d: Sum(rhs),rhsMax =  -1.74678184788663E-04  1.39266302045718E-01
 cg2d: Sum(rhs),rhsMax =  -1.74861770026059E-04  1.39278978683269E-01
 cg2d: Sum(rhs),rhsMax =  -1.75045608883975E-04  1.39291648290173E-01
 cg2d: Sum(rhs),rhsMax =  -1.75229698733025E-04  1.39304310842497E-01
 cg2d: Sum(rhs),rhsMax =  -1.75414036958780E-04  1.39316966316320E-01
 cg2d: Sum(rhs),rhsMax =  -1.75598620863551E-04  1.39329614687742E-01
 cg2d: Sum(rhs),rhsMax =  -1.75783447781943E-04  1.39342255932877E-01
 cg2d: Sum(rhs),rhsMax =  -1.75968515160402E-04  1.39354890027858E-01
 cg2d: Sum(rhs),rhsMax =  -1.76153820465565E-04  1.39367516948832E-01
 cg2d: Sum(rhs),rhsMax =  -1.76339361051554E-04  1.39380136671964E-01
 cg2d: Sum(rhs),rhsMax =  -1.76525134204697E-04  1.39392749173433E-01
 cg2d: Sum(rhs),rhsMax =  -1.76711137524361E-04  1.39405354429440E-01
 cg2d: Sum(rhs),rhsMax =  -1.76897368175991E-04  1.39417952416197E-01
 cg2d: Sum(rhs),rhsMax =  -1.77083823897102E-04  1.39430543109938E-01
 cg2d: Sum(rhs),rhsMax =  -1.77270501886658E-04  1.39443126486909E-01
 cg2d: Sum(rhs),rhsMax =  -1.77457399699130E-04  1.39455702523378E-01
 cg2d: Sum(rhs),rhsMax =  -1.77644514769940E-04  1.39468271195624E-01
 cg2d: Sum(rhs),rhsMax =  -1.77831844484682E-04  1.39480832479950E-01
 cg2d: Sum(rhs),rhsMax =  -1.78019386417153E-04  1.39493386352671E-01
 cg2d: Sum(rhs),rhsMax =  -1.78207138015280E-04  1.39505932790119E-01
 cg2d: Sum(rhs),rhsMax =  -1.78395096728582E-04  1.39518471768647E-01
 cg2d: Sum(rhs),rhsMax =  -1.78583260061025E-04  1.39531003264623E-01
 cg2d: Sum(rhs),rhsMax =  -1.78771625585942E-04  1.39543527254432E-01
 cg2d: Sum(rhs),rhsMax =  -1.78960190799501E-04  1.39556043714477E-01
 cg2d: Sum(rhs),rhsMax =  -1.79148953175505E-04  1.39568552621178E-01
 cg2d: Sum(rhs),rhsMax =  -1.79337910248267E-04  1.39581053950972E-01
 cg2d: Sum(rhs),rhsMax =  -1.79527059615550E-04  1.39593547680315E-01
 cg2d: Sum(rhs),rhsMax =  -1.79716398760537E-04  1.39606033785681E-01
 cg2d: Sum(rhs),rhsMax =  -1.79905925336239E-04  1.39618512243559E-01
 cg2d: Sum(rhs),rhsMax =  -1.80095636883091E-04  1.39630983030457E-01
 cg2d: Sum(rhs),rhsMax =  -1.80285530860150E-04  1.39643446122901E-01
 cg2d: Sum(rhs),rhsMax =  -1.80475605030624E-04  1.39655901497435E-01
 cg2d: Sum(rhs),rhsMax =  -1.80665856936060E-04  1.39668349130621E-01
 cg2d: Sum(rhs),rhsMax =  -1.80856284129255E-04  1.39680788999038E-01
 cg2d: Sum(rhs),rhsMax =  -1.81046884358182E-04  1.39693221079283E-01
 cg2d: Sum(rhs),rhsMax =  -1.81237655097665E-04  1.39705645347971E-01
 cg2d: Sum(rhs),rhsMax =  -1.81428594166589E-04  1.39718061781736E-01
 cg2d: Sum(rhs),rhsMax =  -1.81619699112929E-04  1.39730470357229E-01
 cg2d: Sum(rhs),rhsMax =  -1.81810967525863E-04  1.39742871051121E-01
 cg2d: Sum(rhs),rhsMax =  -1.82002397254735E-04  1.39755263840098E-01
 cg2d: Sum(rhs),rhsMax =  -1.82193985888920E-04  1.39767648700868E-01
 cg2d: Sum(rhs),rhsMax =  -1.82385731219084E-04  1.39780025610154E-01
 cg2d: Sum(rhs),rhsMax =  -1.82577630726590E-04  1.39792394544699E-01
 cg2d: Sum(rhs),rhsMax =  -1.82769682355864E-04  1.39804755481264E-01
 cg2d: Sum(rhs),rhsMax =  -1.82961883753518E-04  1.39817108396631E-01
 cg2d: Sum(rhs),rhsMax =  -1.83154232644193E-04  1.39829453267595E-01
 cg2d: Sum(rhs),rhsMax =  -1.83346726812125E-04  1.39841790070974E-01
 cg2d: Sum(rhs),rhsMax =  -1.83539363990576E-04  1.39854118783605E-01
 cg2d: Sum(rhs),rhsMax =  -1.83732141957926E-04  1.39866439382339E-01
 cg2d: Sum(rhs),rhsMax =  -1.83925058458718E-04  1.39878751844052E-01
 cg2d: Sum(rhs),rhsMax =  -1.84118111438061E-04  1.39891056145634E-01
 cg2d: Sum(rhs),rhsMax =  -1.84311298446269E-04  1.39903352263994E-01
 cg2d: Sum(rhs),rhsMax =  -1.84504617476038E-04  1.39915640176063E-01
 cg2d: Sum(rhs),rhsMax =  -1.84698066306739E-04  1.39927919858790E-01
 cg2d: Sum(rhs),rhsMax =  -1.84891642784571E-04  1.39940191289142E-01
 cg2d: Sum(rhs),rhsMax =  -1.85085344756178E-04  1.39952454444104E-01
 cg2d: Sum(rhs),rhsMax =  -1.85279170028106E-04  1.39964709300682E-01
 cg2d: Sum(rhs),rhsMax =  -1.85473116596700E-04  1.39976955835900E-01
 cg2d: Sum(rhs),rhsMax =  -1.85667182271615E-04  1.39989194026803E-01
 cg2d: Sum(rhs),rhsMax =  -1.85861365065002E-04  1.40001423850454E-01
 cg2d: Sum(rhs),rhsMax =  -1.86055662655486E-04  1.40013645283933E-01
 cg2d: Sum(rhs),rhsMax =  -1.86250073070398E-04  1.40025858304344E-01
 cg2d: Sum(rhs),rhsMax =  -1.86444594231326E-04  1.40038062888807E-01
 cg2d: Sum(rhs),rhsMax =  -1.86639224079843E-04  1.40050259014462E-01
(PID.TID 0000.0001)      cg2d_init_res =   1.08637492214030E-03
(PID.TID 0000.0001)      cg2d_iters(min,last) =      -1      75
(PID.TID 0000.0001)      cg2d_last_res =   9.69073262382346E-08
(PID.TID 0000.0001) // =======================================================
(PID.TID 0000.0001) // Begin MONITOR dynamic field statistics
(PID.TID 0000.0001) // =======================================================
(PID.TID 0000.0001) %MON time_tsnumber                =                  9216
(PID.TID 0000.0001) %MON time_secondsf                =   1.1059200000000E+07
(PID.TID 0000.0001) %MON dynstat_eta_max              =   4.7531134697303E-02
(PID.TID 0000.0001) %MON dynstat_eta_min              =  -2.4595420826978E-02
(PID.TID 0000.0001) %MON dynstat_eta_mean             =   1.3084210816513E-07
(PID.TID 0000.0001) %MON dynstat_eta_sd               =   2.0298557802148E-02
(PID.TID 0000.0001) %MON dynstat_eta_del2             =   1.7848929549064E-05
(PID.TID 0000.0001) %MON dynstat_uvel_max             =   3.1880010175218E-02
(PID.TID 0000.0001) %MON dynstat_uvel_min             =  -1.7098733811277E-02
(PID.TID 0000.0001) %MON dynstat_uvel_mean            =  -2.2984997803147E-07
(PID.TID 0000.0001) %MON dynstat_uvel_sd              =   7.7997714593961E-03
(PID.TID 0000.0001) %MON dynstat_uvel_del2            =   8.8353086292260E-06
(PID.TID 0000.0001) %MON dynstat_vvel_max             =   8.4108395083132E-02
(PID.TID 0000.0001) %MON dynstat_vvel_min             =  -3.0015393606463E-02
(PID.TID 0000.0001) %MON dynstat_vvel_mean            =   9.6412715392575E-09
(PID.TID 0000.0001) %MON dynstat_vvel_sd              =   1.5389938529511E-02
(PID.TID 0000.0001) %MON dynstat_vvel_del2            =   7.4751954297006E-05
(PID.TID 0000.0001) %MON dynstat_wvel_max             =   1.2076053175260E-08
(PID.TID 0000.0001) %MON dynstat_wvel_min             =  -1.6715489389026E-08
(PID.TID 0000.0001) %MON dynstat_wvel_mean            =   1.7199509885460E-21
(PID.TID 0000.0001) %MON dynstat_wvel_sd              =   6.2464847640162E-09
(PID.TID 0000.0001) %MON dynstat_wvel_del2            =   2.4068716146501E-12
(PID.TID 0000.0001) %MON dynstat_theta_max            =   2.0000000000000E+01
(PID.TID 0000.0001) %MON dynstat_theta_min            =   2.0000000000000E+01
(PID.TID 0000.0001) %MON dynstat_theta_mean           =   2.0000000000000E+01
(PID.TID 0000.0001) %MON dynstat_theta_sd             =   0.0000000000000E+00
(PID.TID 0000.0001) %MON dynstat_theta_del2           =   0.0000000000000E+00
(PID.TID 0000.0001) %MON dynstat_salt_max             =   3.0000000000000E+01
(PID.TID 0000.0001) %MON dynstat_salt_min             =   3.0000000000000E+01
(PID.TID 0000.0001) %MON dynstat_salt_mean            =   3.0000000000000E+01
(PID.TID 0000.0001) %MON dynstat_salt_sd              =   0.0000000000000E+00
(PID.TID 0000.0001) %MON dynstat_salt_del2            =   0.0000000000000E+00
(PID.TID 0000.0001) %MON trAdv_CFL_u_max              =   1.9126676680863E-03
(PID.TID 0000.0001) %MON trAdv_CFL_v_max              =   5.0460350245659E-03
(PID.TID 0000.0001) %MON trAdv_CFL_w_max              =   2.8993731612805E-09
(PID.TID 0000.0001) %MON advcfl_uvel_max              =   1.9128006105131E-03
(PID.TID 0000.0001) %MON advcfl_vvel_max              =   5.0465037049879E-03
(PID.TID 0000.0001) %MON advcfl_wvel_max              =   8.0234349067323E-09
(PID.TID 0000.0001) %MON advcfl_W_hf_max              =   0.0000000000000E+00
(PID.TID 0000.0001) %MON pe_b_mean                    =   4.0420285133584E-07
(PID.TID 0000.0001) %MON ke_max                       =   3.5353813499950E-03
(PID.TID 0000.0001) %MON ke_mean                      =   1.4636259938348E-04
(PID.TID 0000.0001) %MON ke_vol                       =   7.2000000000000E+15
(PID.TID 0000.0001) %MON vort_r_min                   =  -1.4254582240763E-06
(PID.TID 0000.0001) %MON vort_r_max                   =   2.3526814985489E-06
(PID.TID 0000.0001) %MON vort_a_mean                  =   1.0600000000000E-04
(PID.TID 0000.0001) %MON vort_a_sd                    =   3.5374342613242E-06
(PID.TID 0000.0001) %MON vort_p_mean                  =   1.1130000000000E-04
(PID.TID 0000.0001) %MON vort_p_sd                    =   4.1152333953789E-05
(PID.TID 0000.0001) %MON surfExpan_theta_mean         =   3.4397689634918E-20
(PID.TID 0000.0001) %MON surfExpan_salt_mean          =   5.1595587062062E-20
(PID.TID 0000.0001) // =======================================================
(PID.TID 0000.0001) // End MONITOR dynamic field statistics
(PID.TID 0000.0001) // =======================================================
 cg2d: Sum(rhs),rhsMax =  -1.86833960553361E-04  1.40062446658469E-01
 cg2d: Sum(rhs),rhsMax =  -1.87028801669365E-04  1.40074625798010E-01
 cg2d: Sum(rhs),rhsMax =  -1.87223745357434E-04  1.40086796410280E-01
 cg2d: Sum(rhs),rhsMax =  -1.87418789605033E-04  1.40098958472502E-01
 cg2d: Sum(rhs),rhsMax =  -1.87613932417803E-04  1.40111111961911E-01
 cg2d: Sum(rhs),rhsMax =  -1.87809171825880E-04  1.40123256855766E-01
 cg2d: Sum(rhs),rhsMax =  -1.88004505754943E-04  1.40135393131348E-01
 cg2d: Sum(rhs),rhsMax =  -1.88199932353965E-04  1.40147520765950E-01
 cg2d: Sum(rhs),rhsMax =  -1.88395449621088E-04  1.40159639736894E-01
 cg2d: Sum(rhs),rhsMax =  -1.88591055663498E-04  1.40171750021516E-01
 cg2d: Sum(rhs),rhsMax =  -1.88786748450104E-04  1.40183851597173E-01
 cg2d: Sum(rhs),rhsMax =  -1.88982526095224E-04  1.40195944441245E-01
 cg2d: Sum(rhs),rhsMax =  -1.89178386619679E-04  1.40208028531129E-01
 cg2d: Sum(rhs),rhsMax =  -1.89374328240378E-04  1.40220103844242E-01
 cg2d: Sum(rhs),rhsMax =  -1.89570348979457E-04  1.40232170358023E-01
 cg2d: Sum(rhs),rhsMax =  -1.89766447006893E-04  1.40244228049931E-01
 cg2d: Sum(rhs),rhsMax =  -1.89962620404264E-04  1.40256276897445E-01
 cg2d: Sum(rhs),rhsMax =  -1.90158867303261E-04  1.40268316878064E-01
 cg2d: Sum(rhs),rhsMax =  -1.90355186022237E-04  1.40280347969307E-01
 cg2d: Sum(rhs),rhsMax =  -1.90551574606009E-04  1.40292370148716E-01
 cg2d: Sum(rhs),rhsMax =  -1.90748031142587E-04  1.40304383393851E-01
 cg2d: Sum(rhs),rhsMax =  -1.90944553889578E-04  1.40316387682291E-01
 cg2d: Sum(rhs),rhsMax =  -1.91141141140657E-04  1.40328382991641E-01
 cg2d: Sum(rhs),rhsMax =  -1.91337791004025E-04  1.40340369299520E-01
 cg2d: Sum(rhs),rhsMax =  -1.91534501685721E-04  1.40352346583576E-01
 cg2d: Sum(rhs),rhsMax =  -1.91731271526688E-04  1.40364314821470E-01
 cg2d: Sum(rhs),rhsMax =  -1.91928098672167E-04  1.40376273990886E-01
 cg2d: Sum(rhs),rhsMax =  -1.92124981354058E-04  1.40388224069531E-01
 cg2d: Sum(rhs),rhsMax =  -1.92321917915038E-04  1.40400165035133E-01
 cg2d: Sum(rhs),rhsMax =  -1.92463090518348E-04  1.40412097130720E-01
 cg2d: Sum(rhs),rhsMax =  -1.92604282124395E-04  1.40424019810948E-01
 cg2d: Sum(rhs),rhsMax =  -1.92745468773609E-04  1.40435933304381E-01
 cg2d: Sum(rhs),rhsMax =  -1.92886662570225E-04  1.40447837595276E-01
 cg2d: Sum(rhs),rhsMax =  -1.93027863704642E-04  1.40459732663191E-01
 cg2d: Sum(rhs),rhsMax =  -1.93169071023936E-04  1.40471618485789E-01
 cg2d: Sum(rhs),rhsMax =  -1.93310282712010E-04  1.40483495040285E-01
 cg2d: Sum(rhs),rhsMax =  -1.93451496873223E-04  1.40495362304325E-01
 cg2d: Sum(rhs),rhsMax =  -1.93592711994545E-04  1.40507220255810E-01
 cg2d: Sum(rhs),rhsMax =  -1.93733927031080E-04  1.40519068872666E-01
 cg2d: Sum(rhs),rhsMax =  -1.93875141025536E-04  1.40530908132815E-01
 cg2d: Sum(rhs),rhsMax =  -1.94016353234676E-04  1.40542738014223E-01
 cg2d: Sum(rhs),rhsMax =  -1.94157562837229E-04  1.40554558494906E-01
 cg2d: Sum(rhs),rhsMax =  -1.94298768912860E-04  1.40566369552916E-01
 cg2d: Sum(rhs),rhsMax =  -1.94439970418831E-04  1.40578171166319E-01
 cg2d: Sum(rhs),rhsMax =  -1.94581166324141E-04  1.40589963313189E-01
 cg2d: Sum(rhs),rhsMax =  -1.94722355701240E-04  1.40601745971618E-01
 cg2d: Sum(rhs),rhsMax =  -1.94863537592071E-04  1.40613519119711E-01
 cg2d: Sum(rhs),rhsMax =  -1.95004711043755E-04  1.40625282735600E-01
 cg2d: Sum(rhs),rhsMax =  -1.95145875295516E-04  1.40637036797438E-01
 cg2d: Sum(rhs),rhsMax =  -1.95287029401397E-04  1.40648781283400E-01
 cg2d: Sum(rhs),rhsMax =  -1.95428172451155E-04  1.40660516171685E-01
 cg2d: Sum(rhs),rhsMax =  -1.95569303730235E-04  1.40672241440513E-01
 cg2d: Sum(rhs),rhsMax =  -1.95710422172300E-04  1.40683957068127E-01
 cg2d: Sum(rhs),rhsMax =  -1.95851527164019E-04  1.40695663032791E-01
 cg2d: Sum(rhs),rhsMax =  -1.95992617720898E-04  1.40707359312797E-01
 cg2d: Sum(rhs),rhsMax =  -1.96133693124978E-04  1.40719045886453E-01
 cg2d: Sum(rhs),rhsMax =  -1.96274752670153E-04  1.40730722732095E-01
 cg2d: Sum(rhs),rhsMax =  -1.96415795386116E-04  1.40742389828077E-01
 cg2d: Sum(rhs),rhsMax =  -1.96556820600364E-04  1.40754047152775E-01
 cg2d: Sum(rhs),rhsMax =  -1.96697827588298E-04  1.40765694684590E-01
 cg2d: Sum(rhs),rhsMax =  -1.96838815482343E-04  1.40777332401944E-01
 cg2d: Sum(rhs),rhsMax =  -1.96979783740349E-04  1.40788960283280E-01
 cg2d: Sum(rhs),rhsMax =  -1.97120731570356E-04  1.40800578307065E-01
 cg2d: Sum(rhs),rhsMax =  -1.97261658198298E-04  1.40812186451788E-01
 cg2d: Sum(rhs),rhsMax =  -1.97402562966078E-04  1.40823784695963E-01
 cg2d: Sum(rhs),rhsMax =  -1.97543445278678E-04  1.40835373018125E-01
 cg2d: Sum(rhs),rhsMax =  -1.97684304381813E-04  1.40846951396833E-01
 cg2d: Sum(rhs),rhsMax =  -1.97825139740287E-04  1.40858519810666E-01
 cg2d: Sum(rhs),rhsMax =  -1.97965950569018E-04  1.40870078238229E-01
 cg2d: Sum(rhs),rhsMax =  -1.98106736339444E-04  1.40881626658148E-01
 cg2d: Sum(rhs),rhsMax =  -1.98247496352762E-04  1.40893165049073E-01
 cg2d: Sum(rhs),rhsMax =  -1.98388230157483E-04  1.40904693389677E-01
(PID.TID 0000.0001)      cg2d_init_res =   1.06924225026623E-03
(PID.TID 0000.0001)      cg2d_iters(min,last) =      -1      76
(PID.TID 0000.0001)      cg2d_last_res =   8.77551805483479E-08
(PID.TID 0000.0001) // =======================================================
(PID.TID 0000.0001) // Begin MONITOR dynamic field statistics
(PID.TID 0000.0001) // =======================================================
(PID.TID 0000.0001) %MON time_tsnumber                =                  9288
(PID.TID 0000.0001) %MON time_secondsf                =   1.1145600000000E+07
(PID.TID 0000.0001) %MON dynstat_eta_max              =   4.8436455245812E-02
(PID.TID 0000.0001) %MON dynstat_eta_min              =  -2.4281688443188E-02
(PID.TID 0000.0001) %MON dynstat_eta_mean             =   1.3987972853843E-07
(PID.TID 0000.0001) %MON dynstat_eta_sd               =   2.0409335360318E-02
(PID.TID 0000.0001) %MON dynstat_eta_del2             =   1.7883707808235E-05
(PID.TID 0000.0001) %MON dynstat_uvel_max             =   3.2036291870791E-02
(PID.TID 0000.0001) %MON dynstat_uvel_min             =  -1.7129901430591E-02
(PID.TID 0000.0001) %MON dynstat_uvel_mean            =  -2.0934406189440E-07
(PID.TID 0000.0001) %MON dynstat_uvel_sd              =   7.7657173837458E-03
(PID.TID 0000.0001) %MON dynstat_uvel_del2            =   8.8119260293374E-06
(PID.TID 0000.0001) %MON dynstat_vvel_max             =   8.4658210592393E-02
(PID.TID 0000.0001) %MON dynstat_vvel_min             =  -2.9921369288814E-02
(PID.TID 0000.0001) %MON dynstat_vvel_mean            =   1.0754529711700E-08
(PID.TID 0000.0001) %MON dynstat_vvel_sd              =   1.5450839554720E-02
(PID.TID 0000.0001) %MON dynstat_vvel_del2            =   7.5004394680260E-05
(PID.TID 0000.0001) %MON dynstat_wvel_max             =   1.1756539061898E-08
(PID.TID 0000.0001) %MON dynstat_wvel_min             =  -1.6645946145291E-08
(PID.TID 0000.0001) %MON dynstat_wvel_mean            =  -3.0123053167901E-21
(PID.TID 0000.0001) %MON dynstat_wvel_sd              =   6.2191150720939E-09
(PID.TID 0000.0001) %MON dynstat_wvel_del2            =   2.3896744775981E-12
(PID.TID 0000.0001) %MON dynstat_theta_max            =   2.0000000000000E+01
(PID.TID 0000.0001) %MON dynstat_theta_min            =   2.0000000000000E+01
(PID.TID 0000.0001) %MON dynstat_theta_mean           =   2.0000000000000E+01
(PID.TID 0000.0001) %MON dynstat_theta_sd             =   0.0000000000000E+00
(PID.TID 0000.0001) %MON dynstat_theta_del2           =   0.0000000000000E+00
(PID.TID 0000.0001) %MON dynstat_salt_max             =   3.0000000000000E+01
(PID.TID 0000.0001) %MON dynstat_salt_min             =   3.0000000000000E+01
(PID.TID 0000.0001) %MON dynstat_salt_mean            =   3.0000000000000E+01
(PID.TID 0000.0001) %MON dynstat_salt_sd              =   0.0000000000000E+00
(PID.TID 0000.0001) %MON dynstat_salt_del2            =   0.0000000000000E+00
(PID.TID 0000.0001) %MON trAdv_CFL_u_max              =   1.9220501330773E-03
(PID.TID 0000.0001) %MON trAdv_CFL_v_max              =   5.0790453972285E-03
(PID.TID 0000.0001) %MON trAdv_CFL_w_max              =   2.8226482195314E-09
(PID.TID 0000.0001) %MON advcfl_uvel_max              =   1.9221775122475E-03
(PID.TID 0000.0001) %MON advcfl_vvel_max              =   5.0794926355436E-03
(PID.TID 0000.0001) %MON advcfl_wvel_max              =   7.9900541497394E-09
(PID.TID 0000.0001) %MON advcfl_W_hf_max              =   0.0000000000000E+00
(PID.TID 0000.0001) %MON pe_b_mean                    =   4.0862669144196E-07
(PID.TID 0000.0001) %MON ke_max                       =   3.5818498643482E-03
(PID.TID 0000.0001) %MON ke_mean                      =   1.4702544799131E-04
(PID.TID 0000.0001) %MON ke_vol                       =   7.2000000000000E+15
(PID.TID 0000.0001) %MON vort_r_min                   =  -1.4230106371712E-06
(PID.TID 0000.0001) %MON vort_r_max                   =   2.3666227079424E-06
(PID.TID 0000.0001) %MON vort_a_mean                  =   1.0600000000000E-04
(PID.TID 0000.0001) %MON vort_a_sd                    =   3.5375498659716E-06
(PID.TID 0000.0001) %MON vort_p_mean                  =   1.1130000000000E-04
(PID.TID 0000.0001) %MON vort_p_sd                    =   4.1152195240931E-05
(PID.TID 0000.0001) %MON surfExpan_theta_mean         =  -6.0266813761700E-20
(PID.TID 0000.0001) %MON surfExpan_salt_mean          =  -9.0407247120715E-20
(PID.TID 0000.0001) // =======================================================
(PID.TID 0000.0001) // End MONITOR dynamic field statistics
(PID.TID 0000.0001) // =======================================================
 cg2d: Sum(rhs),rhsMax =  -1.98528936981341E-04  1.40916211658655E-01
 cg2d: Sum(rhs),rhsMax =  -1.98669616295005E-04  1.40927719834727E-01
 cg2d: Sum(rhs),rhsMax =  -1.98810267633258E-04  1.40939217896632E-01
 cg2d: Sum(rhs),rhsMax =  -1.98950890385446E-04  1.40950705823138E-01
 cg2d: Sum(rhs),rhsMax =  -1.99091483947019E-04  1.40962183593033E-01
 cg2d: Sum(rhs),rhsMax =  -1.99232047829176E-04  1.40973651185127E-01
 cg2d: Sum(rhs),rhsMax =  -1.99372581565744E-04  1.40985108578258E-01
 cg2d: Sum(rhs),rhsMax =  -1.99513084477881E-04  1.40996555751282E-01
 cg2d: Sum(rhs),rhsMax =  -1.99653556342415E-04  1.41007992683081E-01
 cg2d: Sum(rhs),rhsMax =  -1.99793996530988E-04  1.41019419352562E-01
 cg2d: Sum(rhs),rhsMax =  -1.99934404517833E-04  1.41030835738652E-01
 cg2d: Sum(rhs),rhsMax =  -2.00074779858254E-04  1.41042241820306E-01
 cg2d: Sum(rhs),rhsMax =  -2.00215122192838E-04  1.41053637576497E-01
 cg2d: Sum(rhs),rhsMax =  -2.00355431047116E-04  1.41065022986227E-01
 cg2d: Sum(rhs),rhsMax =  -2.00495705976406E-04  1.41076398028519E-01
 cg2d: Sum(rhs),rhsMax =  -2.00635946551219E-04  1.41087762682420E-01
 cg2d: Sum(rhs),rhsMax =  -2.00776152366588E-04  1.41099116927002E-01
 cg2d: Sum(rhs),rhsMax =  -2.00916323083403E-04  1.41110460741359E-01
 cg2d: Sum(rhs),rhsMax =  -2.01056458154421E-04  1.41121794104611E-01
 cg2d: Sum(rhs),rhsMax =  -2.01196557397820E-04  1.41133116995899E-01
 cg2d: Sum(rhs),rhsMax =  -2.01336620343725E-04  1.41144429394391E-01
 cg2d: Sum(rhs),rhsMax =  -2.01476646654638E-04  1.41155731279279E-01
 cg2d: Sum(rhs),rhsMax =  -2.01616635975661E-04  1.41167022629777E-01
 cg2d: Sum(rhs),rhsMax =  -2.01756588070000E-04  1.41178303425123E-01
 cg2d: Sum(rhs),rhsMax =  -2.01896502421284E-04  1.41189573644582E-01
 cg2d: Sum(rhs),rhsMax =  -2.02036378885532E-04  1.41200833267442E-01
 cg2d: Sum(rhs),rhsMax =  -2.02176217033449E-04  1.41212082273012E-01
 cg2d: Sum(rhs),rhsMax =  -2.02316016675499E-04  1.41223320640633E-01
 cg2d: Sum(rhs),rhsMax =  -2.02455777478860E-04  1.41234548349661E-01
 cg2d: Sum(rhs),rhsMax =  -2.02595499051985E-04  1.41245765379482E-01
 cg2d: Sum(rhs),rhsMax =  -2.02735181350768E-04  1.41256971709507E-01
 cg2d: Sum(rhs),rhsMax =  -2.02874823965976E-04  1.41268167319169E-01
 cg2d: Sum(rhs),rhsMax =  -2.03014426590018E-04  1.41279352187926E-01
 cg2d: Sum(rhs),rhsMax =  -2.03153989055760E-04  1.41290526295262E-01
 cg2d: Sum(rhs),rhsMax =  -2.03293511234873E-04  1.41301689620686E-01
 cg2d: Sum(rhs),rhsMax =  -2.03432992720884E-04  1.41312842143728E-01
 cg2d: Sum(rhs),rhsMax =  -2.03572433376617E-04  1.41323983843946E-01
 cg2d: Sum(rhs),rhsMax =  -2.03711832890599E-04  1.41335114700923E-01
 cg2d: Sum(rhs),rhsMax =  -2.03851191101343E-04  1.41346234694263E-01
 cg2d: Sum(rhs),rhsMax =  -2.03990507958027E-04  1.41357343803602E-01
 cg2d: Sum(rhs),rhsMax =  -2.04129783090994E-04  1.41368442008593E-01
 cg2d: Sum(rhs),rhsMax =  -2.04269016331555E-04  1.41379529288919E-01
 cg2d: Sum(rhs),rhsMax =  -2.04408207501934E-04  1.41390605624288E-01
 cg2d: Sum(rhs),rhsMax =  -2.04547356566426E-04  1.41401670994430E-01
 cg2d: Sum(rhs),rhsMax =  -2.04686463151504E-04  1.41412725379101E-01
 cg2d: Sum(rhs),rhsMax =  -2.04825527199259E-04  1.41423768758085E-01
 cg2d: Sum(rhs),rhsMax =  -2.04964548503704E-04  1.41434801111188E-01
 cg2d: Sum(rhs),rhsMax =  -2.05103526978558E-04  1.41445822418242E-01
 cg2d: Sum(rhs),rhsMax =  -2.05242462398864E-04  1.41456832659105E-01
 cg2d: Sum(rhs),rhsMax =  -2.05381354716266E-04  1.41467831813661E-01
 cg2d: Sum(rhs),rhsMax =  -2.05520203778109E-04  1.41478819861817E-01
 cg2d: Sum(rhs),rhsMax =  -2.05659009314343E-04  1.41489796783508E-01
 cg2d: Sum(rhs),rhsMax =  -2.05797771336495E-04  1.41500762558691E-01
 cg2d: Sum(rhs),rhsMax =  -2.05936489603545E-04  1.41511717167354E-01
 cg2d: Sum(rhs),rhsMax =  -2.06075164167838E-04  1.41522660589504E-01
 cg2d: Sum(rhs),rhsMax =  -2.06213794826611E-04  1.41533592805179E-01
 cg2d: Sum(rhs),rhsMax =  -2.06352381404437E-04  1.41544513794440E-01
 cg2d: Sum(rhs),rhsMax =  -2.06490923719045E-04  1.41555423537375E-01
 cg2d: Sum(rhs),rhsMax =  -2.06629421892747E-04  1.41566322014095E-01
 cg2d: Sum(rhs),rhsMax =  -2.06767875550692E-04  1.41577209204740E-01
 cg2d: Sum(rhs),rhsMax =  -2.06906284804412E-04  1.41588085089474E-01
 cg2d: Sum(rhs),rhsMax =  -2.07044649505060E-04  1.41598949648489E-01
 cg2d: Sum(rhs),rhsMax =  -2.07182969396791E-04  1.41609802862000E-01
 cg2d: Sum(rhs),rhsMax =  -2.07321244559885E-04  1.41620644710249E-01
 cg2d: Sum(rhs),rhsMax =  -2.07459474892399E-04  1.41631475173505E-01
 cg2d: Sum(rhs),rhsMax =  -2.07597660100681E-04  1.41642294232062E-01
 cg2d: Sum(rhs),rhsMax =  -2.07735800289388E-04  1.41653101866240E-01
 cg2d: Sum(rhs),rhsMax =  -2.07873895338567E-04  1.41663898056386E-01
 cg2d: Sum(rhs),rhsMax =  -2.08011945059496E-04  1.41674682782873E-01
 cg2d: Sum(rhs),rhsMax =  -2.08149949438854E-04  1.41685456026099E-01
 cg2d: Sum(rhs),rhsMax =  -2.08287908335289E-04  1.41696217766491E-01
 cg2d: Sum(rhs),rhsMax =  -2.08425821670085E-04  1.41706967984498E-01
(PID.TID 0000.0001)      cg2d_init_res =   1.05329045125178E-03
(PID.TID 0000.0001)      cg2d_iters(min,last) =      -1      76
(PID.TID 0000.0001)      cg2d_last_res =   9.27809432726335E-08
(PID.TID 0000.0001) // =======================================================
(PID.TID 0000.0001) // Begin MONITOR dynamic field statistics
(PID.TID 0000.0001) // =======================================================
(PID.TID 0000.0001) %MON time_tsnumber                =                  9360
(PID.TID 0000.0001) %MON time_secondsf                =   1.1232000000000E+07
(PID.TID 0000.0001) %MON dynstat_eta_max              =   4.9326909102586E-02
(PID.TID 0000.0001) %MON dynstat_eta_min              =  -2.3930257699123E-02
(PID.TID 0000.0001) %MON dynstat_eta_mean             =   1.4778583876303E-07
(PID.TID 0000.0001) %MON dynstat_eta_sd               =   2.0487801375928E-02
(PID.TID 0000.0001) %MON dynstat_eta_del2             =   1.7920364861093E-05
(PID.TID 0000.0001) %MON dynstat_uvel_max             =   3.2185087252560E-02
(PID.TID 0000.0001) %MON dynstat_uvel_min             =  -1.7152042464204E-02
(PID.TID 0000.0001) %MON dynstat_uvel_mean            =  -1.8631398317443E-07
(PID.TID 0000.0001) %MON dynstat_uvel_sd              =   7.7209183484933E-03
(PID.TID 0000.0001) %MON dynstat_uvel_del2            =   8.7837453635569E-06
(PID.TID 0000.0001) %MON dynstat_vvel_max             =   8.5179653010761E-02
(PID.TID 0000.0001) %MON dynstat_vvel_min             =  -2.9856869329348E-02
(PID.TID 0000.0001) %MON dynstat_vvel_mean            =   1.1762483596377E-08
(PID.TID 0000.0001) %MON dynstat_vvel_sd              =   1.5507220799005E-02
(PID.TID 0000.0001) %MON dynstat_vvel_del2            =   7.5251228333442E-05
(PID.TID 0000.0001) %MON dynstat_wvel_max             =   1.1371676707640E-08
(PID.TID 0000.0001) %MON dynstat_wvel_min             =  -1.6543364425306E-08
(PID.TID 0000.0001) %MON dynstat_wvel_mean            =   4.3924718637653E-21
(PID.TID 0000.0001) %MON dynstat_wvel_sd              =   6.1929775457575E-09
(PID.TID 0000.0001) %MON dynstat_wvel_del2            =   2.3726507224808E-12
(PID.TID 0000.0001) %MON dynstat_theta_max            =   2.0000000000000E+01
(PID.TID 0000.0001) %MON dynstat_theta_min            =   2.0000000000000E+01
(PID.TID 0000.0001) %MON dynstat_theta_mean           =   2.0000000000000E+01
(PID.TID 0000.0001) %MON dynstat_theta_sd             =   0.0000000000000E+00
(PID.TID 0000.0001) %MON dynstat_theta_del2           =   0.0000000000000E+00
(PID.TID 0000.0001) %MON dynstat_salt_max             =   3.0000000000000E+01
(PID.TID 0000.0001) %MON dynstat_salt_min             =   3.0000000000000E+01
(PID.TID 0000.0001) %MON dynstat_salt_mean            =   3.0000000000000E+01
(PID.TID 0000.0001) %MON dynstat_salt_sd              =   0.0000000000000E+00
(PID.TID 0000.0001) %MON dynstat_salt_del2            =   0.0000000000000E+00
(PID.TID 0000.0001) %MON trAdv_CFL_u_max              =   1.9309847415532E-03
(PID.TID 0000.0001) %MON trAdv_CFL_v_max              =   5.1103576843983E-03
(PID.TID 0000.0001) %MON trAdv_CFL_w_max              =   2.7306814350653E-09
(PID.TID 0000.0001) %MON advcfl_uvel_max              =   1.9311052351536E-03
(PID.TID 0000.0001) %MON advcfl_vvel_max              =   5.1107791806456E-03
(PID.TID 0000.0001) %MON advcfl_wvel_max              =   7.9408149241470E-09
(PID.TID 0000.0001) %MON advcfl_W_hf_max              =   0.0000000000000E+00
(PID.TID 0000.0001) %MON pe_b_mean                    =   4.1177475514175E-07
(PID.TID 0000.0001) %MON ke_max                       =   3.6262963024929E-03
(PID.TID 0000.0001) %MON ke_mean                      =   1.4754251790162E-04
(PID.TID 0000.0001) %MON ke_vol                       =   7.2000000000000E+15
(PID.TID 0000.0001) %MON vort_r_min                   =  -1.4213569947696E-06
(PID.TID 0000.0001) %MON vort_r_max                   =   2.3794789386540E-06
(PID.TID 0000.0001) %MON vort_a_mean                  =   1.0600000000000E-04
(PID.TID 0000.0001) %MON vort_a_sd                    =   3.5376596812263E-06
(PID.TID 0000.0001) %MON vort_p_mean                  =   1.1130000000000E-04
(PID.TID 0000.0001) %MON vort_p_sd                    =   4.1152045175702E-05
(PID.TID 0000.0001) %MON surfExpan_theta_mean         =   8.7830029668920E-20
(PID.TID 0000.0001) %MON surfExpan_salt_mean          =   1.3174630769047E-19
(PID.TID 0000.0001) // =======================================================
(PID.TID 0000.0001) // End MONITOR dynamic field statistics
(PID.TID 0000.0001) // =======================================================
 cg2d: Sum(rhs),rhsMax =  -2.08563689408340E-04  1.41717706660598E-01
 cg2d: Sum(rhs),rhsMax =  -2.08701511295060E-04  1.41728433775298E-01
 cg2d: Sum(rhs),rhsMax =  -2.08839287406218E-04  1.41739149309125E-01
 cg2d: Sum(rhs),rhsMax =  -2.08977017553554E-04  1.41749853242640E-01
 cg2d: Sum(rhs),rhsMax =  -2.09114701623580E-04  1.41760545556423E-01
 cg2d: Sum(rhs),rhsMax =  -2.09252339595313E-04  1.41771226231086E-01
 cg2d: Sum(rhs),rhsMax =  -2.09389931388253E-04  1.41781895247266E-01
 cg2d: Sum(rhs),rhsMax =  -2.09527476750140E-04  1.41792552585625E-01
 cg2d: Sum(rhs),rhsMax =  -2.09664975752641E-04  1.41803198226855E-01
 cg2d: Sum(rhs),rhsMax =  -2.09802428186937E-04  1.41813832151672E-01
 cg2d: Sum(rhs),rhsMax =  -2.09939834024810E-04  1.41824454340819E-01
 cg2d: Sum(rhs),rhsMax =  -2.10077193176567E-04  1.41835064775067E-01
 cg2d: Sum(rhs),rhsMax =  -2.10214505403799E-04  1.41845663435213E-01
 cg2d: Sum(rhs),rhsMax =  -2.10351770695862E-04  1.41856250302082E-01
 cg2d: Sum(rhs),rhsMax =  -2.10488988971498E-04  1.41866825356525E-01
 cg2d: Sum(rhs),rhsMax =  -2.10626160068799E-04  1.41877388579419E-01
 cg2d: Sum(rhs),rhsMax =  -2.10763283854126E-04  1.41887939951672E-01
 cg2d: Sum(rhs),rhsMax =  -2.10900360139845E-04  1.41898479454212E-01
 cg2d: Sum(rhs),rhsMax =  -2.11037388933484E-04  1.41909007068002E-01
 cg2d: Sum(rhs),rhsMax =  -2.11174370189392E-04  1.41919522774027E-01
 cg2d: Sum(rhs),rhsMax =  -2.11311303666717E-04  1.41930026553302E-01
 cg2d: Sum(rhs),rhsMax =  -2.11448189299580E-04  1.41940518386865E-01
 cg2d: Sum(rhs),rhsMax =  -2.11585026852680E-04  1.41950998255788E-01
 cg2d: Sum(rhs),rhsMax =  -2.11721816424086E-04  1.41961466141164E-01
 cg2d: Sum(rhs),rhsMax =  -2.11858557624752E-04  1.41971922024117E-01
 cg2d: Sum(rhs),rhsMax =  -2.11995250409401E-04  1.41982365885798E-01
 cg2d: Sum(rhs),rhsMax =  -2.12131894715237E-04  1.41992797707383E-01
 cg2d: Sum(rhs),rhsMax =  -2.12268490340680E-04  1.42003217470080E-01
 cg2d: Sum(rhs),rhsMax =  -2.12405037196019E-04  1.42013625155119E-01
 cg2d: Sum(rhs),rhsMax =  -2.12541535179581E-04  1.42024020743762E-01
 cg2d: Sum(rhs),rhsMax =  -2.12677984132512E-04  1.42034404217296E-01
 cg2d: Sum(rhs),rhsMax =  -2.12814383760220E-04  1.42044775557038E-01
 cg2d: Sum(rhs),rhsMax =  -2.12950734137601E-04  1.42055134744332E-01
 cg2d: Sum(rhs),rhsMax =  -2.13087035023786E-04  1.42065481760546E-01
 cg2d: Sum(rhs),rhsMax =  -2.13223286284002E-04  1.42075816587082E-01
 cg2d: Sum(rhs),rhsMax =  -2.13359487754140E-04  1.42086139205367E-01
 cg2d: Sum(rhs),rhsMax =  -2.13495639277539E-04  1.42096449596853E-01
 cg2d: Sum(rhs),rhsMax =  -2.13631740770505E-04  1.42106747743024E-01
 cg2d: Sum(rhs),rhsMax =  -2.13767792047287E-04  1.42117033625391E-01
 cg2d: Sum(rhs),rhsMax =  -2.13903793025571E-04  1.42127307225492E-01
 cg2d: Sum(rhs),rhsMax =  -2.14039743429451E-04  1.42137568524893E-01
 cg2d: Sum(rhs),rhsMax =  -2.14175643235327E-04  1.42147817505189E-01
 cg2d: Sum(rhs),rhsMax =  -2.14311492243039E-04  1.42158054148002E-01
 cg2d: Sum(rhs),rhsMax =  -2.14447290327646E-04  1.42168278434985E-01
 cg2d: Sum(rhs),rhsMax =  -2.14583037286060E-04  1.42178490347816E-01
 cg2d: Sum(rhs),rhsMax =  -2.14718732977071E-04  1.42188689868201E-01
 cg2d: Sum(rhs),rhsMax =  -2.14854377306311E-04  1.42198876977877E-01
 cg2d: Sum(rhs),rhsMax =  -2.14989970112121E-04  1.42209051658607E-01
 cg2d: Sum(rhs),rhsMax =  -2.15125511281098E-04  1.42219213892183E-01
 cg2d: Sum(rhs),rhsMax =  -2.15261000593434E-04  1.42229363660427E-01
 cg2d: Sum(rhs),rhsMax =  -2.15396437881504E-04  1.42239500945187E-01
 cg2d: Sum(rhs),rhsMax =  -2.15531823070487E-04  1.42249625728342E-01
 cg2d: Sum(rhs),rhsMax =  -2.15667156029596E-04  1.42259737991795E-01
 cg2d: Sum(rhs),rhsMax =  -2.15802436628480E-04  1.42269837717483E-01
 cg2d: Sum(rhs),rhsMax =  -2.15937664719234E-04  1.42279924887369E-01
 cg2d: Sum(rhs),rhsMax =  -2.16072840054551E-04  1.42289999483445E-01
 cg2d: Sum(rhs),rhsMax =  -2.16207962715172E-04  1.42300061487730E-01
 cg2d: Sum(rhs),rhsMax =  -2.16343032362344E-04  1.42310110882274E-01
 cg2d: Sum(rhs),rhsMax =  -2.16478048937948E-04  1.42320147649156E-01
 cg2d: Sum(rhs),rhsMax =  -2.16613012284286E-04  1.42330171770482E-01
 cg2d: Sum(rhs),rhsMax =  -2.16747922405352E-04  1.42340183228387E-01
 cg2d: Sum(rhs),rhsMax =  -2.16882779070221E-04  1.42350182005037E-01
 cg2d: Sum(rhs),rhsMax =  -2.17017582177002E-04  1.42360168082623E-01
 cg2d: Sum(rhs),rhsMax =  -2.17152331502253E-04  1.42370141443370E-01
 cg2d: Sum(rhs),rhsMax =  -2.17287027164968E-04  1.42380102069527E-01
 cg2d: Sum(rhs),rhsMax =  -2.17421668783618E-04  1.42390049943376E-01
 cg2d: Sum(rhs),rhsMax =  -2.17556256433320E-04  1.42399985047227E-01
 cg2d: Sum(rhs),rhsMax =  -2.17690790034372E-04  1.42409907363416E-01
 cg2d: Sum(rhs),rhsMax =  -2.17825269454714E-04  1.42419816874313E-01
 cg2d: Sum(rhs),rhsMax =  -2.17959694492747E-04  1.42429713562314E-01
 cg2d: Sum(rhs),rhsMax =  -2.18094065125110E-04  1.42439597409845E-01
 cg2d: Sum(rhs),rhsMax =  -2.18228381181861E-04  1.42449468399362E-01
(PID.TID 0000.0001)      cg2d_init_res =   1.03878056106827E-03
(PID.TID 0000.0001)      cg2d_iters(min,last) =      -1      76
(PID.TID 0000.0001)      cg2d_last_res =   9.52728465545551E-08
(PID.TID 0000.0001) // =======================================================
(PID.TID 0000.0001) // Begin MONITOR dynamic field statistics
(PID.TID 0000.0001) // =======================================================
(PID.TID 0000.0001) %MON time_tsnumber                =                  9432
(PID.TID 0000.0001) %MON time_secondsf                =   1.1318400000000E+07
(PID.TID 0000.0001) %MON dynstat_eta_max              =   5.0193126945264E-02
(PID.TID 0000.0001) %MON dynstat_eta_min              =  -2.3545152060382E-02
(PID.TID 0000.0001) %MON dynstat_eta_mean             =   1.5553897507412E-07
(PID.TID 0000.0001) %MON dynstat_eta_sd               =   2.0533246858552E-02
(PID.TID 0000.0001) %MON dynstat_eta_del2             =   1.7958403418599E-05
(PID.TID 0000.0001) %MON dynstat_uvel_max             =   3.2324849249767E-02
(PID.TID 0000.0001) %MON dynstat_uvel_min             =  -1.7160745033838E-02
(PID.TID 0000.0001) %MON dynstat_uvel_mean            =  -1.6105282150088E-07
(PID.TID 0000.0001) %MON dynstat_uvel_sd              =   7.6659286268529E-03
(PID.TID 0000.0001) %MON dynstat_uvel_del2            =   8.7515822827840E-06
(PID.TID 0000.0001) %MON dynstat_vvel_max             =   8.5667735309549E-02
(PID.TID 0000.0001) %MON dynstat_vvel_min             =  -2.9822301938963E-02
(PID.TID 0000.0001) %MON dynstat_vvel_mean            =   1.2651937774639E-08
(PID.TID 0000.0001) %MON dynstat_vvel_sd              =   1.5558248324356E-02
(PID.TID 0000.0001) %MON dynstat_vvel_del2            =   7.5489497180044E-05
(PID.TID 0000.0001) %MON dynstat_wvel_max             =   1.0942612908548E-08
(PID.TID 0000.0001) %MON dynstat_wvel_min             =  -1.6327169258730E-08
(PID.TID 0000.0001) %MON dynstat_wvel_mean            =   8.5950179911581E-22
(PID.TID 0000.0001) %MON dynstat_wvel_sd              =   6.1685114638927E-09
(PID.TID 0000.0001) %MON dynstat_wvel_del2            =   2.3528670798400E-12
(PID.TID 0000.0001) %MON dynstat_theta_max            =   2.0000000000000E+01
(PID.TID 0000.0001) %MON dynstat_theta_min            =   2.0000000000000E+01
(PID.TID 0000.0001) %MON dynstat_theta_mean           =   2.0000000000000E+01
(PID.TID 0000.0001) %MON dynstat_theta_sd             =   0.0000000000000E+00
(PID.TID 0000.0001) %MON dynstat_theta_del2           =   0.0000000000000E+00
(PID.TID 0000.0001) %MON dynstat_salt_max             =   3.0000000000000E+01
(PID.TID 0000.0001) %MON dynstat_salt_min             =   3.0000000000000E+01
(PID.TID 0000.0001) %MON dynstat_salt_mean            =   3.0000000000000E+01
(PID.TID 0000.0001) %MON dynstat_salt_sd              =   0.0000000000000E+00
(PID.TID 0000.0001) %MON dynstat_salt_del2            =   0.0000000000000E+00
(PID.TID 0000.0001) %MON trAdv_CFL_u_max              =   1.9393786014530E-03
(PID.TID 0000.0001) %MON trAdv_CFL_v_max              =   5.1396723720458E-03
(PID.TID 0000.0001) %MON trAdv_CFL_w_max              =   2.6276117462665E-09
(PID.TID 0000.0001) %MON advcfl_uvel_max              =   1.9394909549860E-03
(PID.TID 0000.0001) %MON advcfl_vvel_max              =   5.1400641185729E-03
(PID.TID 0000.0001) %MON advcfl_wvel_max              =   7.8370412441902E-09
(PID.TID 0000.0001) %MON advcfl_W_hf_max              =   0.0000000000000E+00
(PID.TID 0000.0001) %MON pe_b_mean                    =   4.1360355627346E-07
(PID.TID 0000.0001) %MON ke_max                       =   3.6682491544110E-03
(PID.TID 0000.0001) %MON ke_mean                      =   1.4790589672471E-04
(PID.TID 0000.0001) %MON ke_vol                       =   7.2000000000000E+15
(PID.TID 0000.0001) %MON vort_r_min                   =  -1.4197344170701E-06
(PID.TID 0000.0001) %MON vort_r_max                   =   2.3911299343230E-06
(PID.TID 0000.0001) %MON vort_a_mean                  =   1.0600000000000E-04
(PID.TID 0000.0001) %MON vort_a_sd                    =   3.5377622695894E-06
(PID.TID 0000.0001) %MON vort_p_mean                  =   1.1130000000000E-04
(PID.TID 0000.0001) %MON vort_p_sd                    =   4.1151885148808E-05
(PID.TID 0000.0001) %MON surfExpan_theta_mean         =   1.7181944755862E-20
(PID.TID 0000.0001) %MON surfExpan_salt_mean          =   2.5774814381584E-20
(PID.TID 0000.0001) // =======================================================
(PID.TID 0000.0001) // End MONITOR dynamic field statistics
(PID.TID 0000.0001) // =======================================================
 cg2d: Sum(rhs),rhsMax =  -2.18362642718087E-04  1.42459326513348E-01
 cg2d: Sum(rhs),rhsMax =  -2.18496849573445E-04  1.42469171734319E-01
 cg2d: Sum(rhs),rhsMax =  -2.18631001695194E-04  1.42479004044819E-01
 cg2d: Sum(rhs),rhsMax =  -2.18765098926377E-04  1.42488823427417E-01
 cg2d: Sum(rhs),rhsMax =  -2.18899141206001E-04  1.42498629864720E-01
 cg2d: Sum(rhs),rhsMax =  -2.19033128529754E-04  1.42508423339356E-01
 cg2d: Sum(rhs),rhsMax =  -2.19167060861545E-04  1.42518203833988E-01
 cg2d: Sum(rhs),rhsMax =  -2.19300938101346E-04  1.42527971331308E-01
 cg2d: Sum(rhs),rhsMax =  -2.19434760152255E-04  1.42537725814034E-01
 cg2d: Sum(rhs),rhsMax =  -2.19568527010642E-04  1.42547467264918E-01
 cg2d: Sum(rhs),rhsMax =  -2.19702238505072E-04  1.42557195666738E-01
 cg2d: Sum(rhs),rhsMax =  -2.19835894813404E-04  1.42566911002306E-01
 cg2d: Sum(rhs),rhsMax =  -2.19969495680961E-04  1.42576613254459E-01
 cg2d: Sum(rhs),rhsMax =  -2.20103041147257E-04  1.42586302406068E-01
 cg2d: Sum(rhs),rhsMax =  -2.20236531280000E-04  1.42595978440031E-01
 cg2d: Sum(rhs),rhsMax =  -2.20369965894538E-04  1.42605641339277E-01
 cg2d: Sum(rhs),rhsMax =  -2.20503344985717E-04  1.42615291086765E-01
 cg2d: Sum(rhs),rhsMax =  -2.20636668621738E-04  1.42624927665483E-01
 cg2d: Sum(rhs),rhsMax =  -2.20769936646701E-04  1.42634551058451E-01
 cg2d: Sum(rhs),rhsMax =  -2.20903149185158E-04  1.42644161248716E-01
 cg2d: Sum(rhs),rhsMax =  -2.21036306038815E-04  1.42653758219357E-01
 cg2d: Sum(rhs),rhsMax =  -2.21169407378399E-04  1.42663341953484E-01
 cg2d: Sum(rhs),rhsMax =  -2.21302453121510E-04  1.42672912434236E-01
 cg2d: Sum(rhs),rhsMax =  -2.21435443313777E-04  1.42682469644782E-01
 cg2d: Sum(rhs),rhsMax =  -2.21568377873635E-04  1.42692013568321E-01
 cg2d: Sum(rhs),rhsMax =  -2.21701256938960E-04  1.42701544188082E-01
 cg2d: Sum(rhs),rhsMax =  -2.21834080337986E-04  1.42711061487326E-01
 cg2d: Sum(rhs),rhsMax =  -2.21966848180924E-04  1.42720565449343E-01
 cg2d: Sum(rhs),rhsMax =  -2.22099560573355E-04  1.42730056057454E-01
 cg2d: Sum(rhs),rhsMax =  -2.22232217333719E-04  1.42739533295009E-01
 cg2d: Sum(rhs),rhsMax =  -2.22364818610530E-04  1.42748997145390E-01
 cg2d: Sum(rhs),rhsMax =  -2.22497364366829E-04  1.42758447592010E-01
 cg2d: Sum(rhs),rhsMax =  -2.22629854642422E-04  1.42767884618310E-01
 cg2d: Sum(rhs),rhsMax =  -2.22762289527311E-04  1.42777308207763E-01
 cg2d: Sum(rhs),rhsMax =  -2.22894668943046E-04  1.42786718343874E-01
 cg2d: Sum(rhs),rhsMax =  -2.23026992973636E-04  1.42796115010175E-01
 cg2d: Sum(rhs),rhsMax =  -2.23159261582013E-04  1.42805498190232E-01
 cg2d: Sum(rhs),rhsMax =  -2.23291474911231E-04  1.42814867867642E-01
 cg2d: Sum(rhs),rhsMax =  -2.23423632965051E-04  1.42824224026029E-01
 cg2d: Sum(rhs),rhsMax =  -2.23555735776037E-04  1.42833566649050E-01
 cg2d: Sum(rhs),rhsMax =  -2.23687783438386E-04  1.42842895720394E-01
 cg2d: Sum(rhs),rhsMax =  -2.23819775881289E-04  1.42852211223778E-01
 cg2d: Sum(rhs),rhsMax =  -2.23951713233813E-04  1.42861513142954E-01
 cg2d: Sum(rhs),rhsMax =  -2.24083595536538E-04  1.42870801461701E-01
 cg2d: Sum(rhs),rhsMax =  -2.24215422812525E-04  1.42880076163830E-01
 cg2d: Sum(rhs),rhsMax =  -2.24347195189488E-04  1.42889337233184E-01
 cg2d: Sum(rhs),rhsMax =  -2.24478912702344E-04  1.42898584653635E-01
 cg2d: Sum(rhs),rhsMax =  -2.24610575312255E-04  1.42907818409089E-01
 cg2d: Sum(rhs),rhsMax =  -2.24742183122747E-04  1.42917038483480E-01
 cg2d: Sum(rhs),rhsMax =  -2.24873736232661E-04  1.42926244860776E-01
 cg2d: Sum(rhs),rhsMax =  -2.25005234679601E-04  1.42935437524973E-01
 cg2d: Sum(rhs),rhsMax =  -2.25136678406559E-04  1.42944616460102E-01
 cg2d: Sum(rhs),rhsMax =  -2.25268067693163E-04  1.42953781650222E-01
 cg2d: Sum(rhs),rhsMax =  -2.25399402495895E-04  1.42962933079422E-01
 cg2d: Sum(rhs),rhsMax =  -2.25530682887264E-04  1.42972070731830E-01
 cg2d: Sum(rhs),rhsMax =  -2.25661908889565E-04  1.42981194591595E-01
 cg2d: Sum(rhs),rhsMax =  -2.25793080524526E-04  1.42990304642904E-01
 cg2d: Sum(rhs),rhsMax =  -2.25924198122491E-04  1.42999400869975E-01
 cg2d: Sum(rhs),rhsMax =  -2.26055261504319E-04  1.43008483257054E-01
 cg2d: Sum(rhs),rhsMax =  -2.26186270815473E-04  1.43017551788423E-01
 cg2d: Sum(rhs),rhsMax =  -2.26317226066183E-04  1.43026606448390E-01
 cg2d: Sum(rhs),rhsMax =  -2.26448127411290E-04  1.43035647221300E-01
 cg2d: Sum(rhs),rhsMax =  -2.26578974869668E-04  1.43044674091528E-01
 cg2d: Sum(rhs),rhsMax =  -2.26709768513828E-04  1.43053687043477E-01
 cg2d: Sum(rhs),rhsMax =  -2.26840508489943E-04  1.43062686061586E-01
 cg2d: Sum(rhs),rhsMax =  -2.26971194786319E-04  1.43071671130324E-01
 cg2d: Sum(rhs),rhsMax =  -2.27101827542315E-04  1.43080642234192E-01
 cg2d: Sum(rhs),rhsMax =  -2.27232406893234E-04  1.43089599357723E-01
 cg2d: Sum(rhs),rhsMax =  -2.27362932643814E-04  1.43098542485479E-01
 cg2d: Sum(rhs),rhsMax =  -2.27493405185643E-04  1.43107471602058E-01
 cg2d: Sum(rhs),rhsMax =  -2.27623824523810E-04  1.43116386692089E-01
 cg2d: Sum(rhs),rhsMax =  -2.27754190535922E-04  1.43125287740230E-01
(PID.TID 0000.0001)      cg2d_init_res =   1.02593329920660E-03
(PID.TID 0000.0001)      cg2d_iters(min,last) =      -1      76
(PID.TID 0000.0001)      cg2d_last_res =   9.60997047198378E-08
(PID.TID 0000.0001) // =======================================================
(PID.TID 0000.0001) // Begin MONITOR dynamic field statistics
(PID.TID 0000.0001) // =======================================================
(PID.TID 0000.0001) %MON time_tsnumber                =                  9504
(PID.TID 0000.0001) %MON time_secondsf                =   1.1404800000000E+07
(PID.TID 0000.0001) %MON dynstat_eta_max              =   5.1025966724357E-02
(PID.TID 0000.0001) %MON dynstat_eta_min              =  -2.3130797425308E-02
(PID.TID 0000.0001) %MON dynstat_eta_mean             =   1.6309030178884E-07
(PID.TID 0000.0001) %MON dynstat_eta_sd               =   2.0545230908736E-02
(PID.TID 0000.0001) %MON dynstat_eta_del2             =   1.7997306712987E-05
(PID.TID 0000.0001) %MON dynstat_uvel_max             =   3.2454121405939E-02
(PID.TID 0000.0001) %MON dynstat_uvel_min             =  -1.7155361619420E-02
(PID.TID 0000.0001) %MON dynstat_uvel_mean            =  -1.3388030675341E-07
(PID.TID 0000.0001) %MON dynstat_uvel_sd              =   7.6013890116131E-03
(PID.TID 0000.0001) %MON dynstat_uvel_del2            =   8.7162386380386E-06
(PID.TID 0000.0001) %MON dynstat_vvel_max             =   8.6117850270848E-02
(PID.TID 0000.0001) %MON dynstat_vvel_min             =  -2.9817714962787E-02
(PID.TID 0000.0001) %MON dynstat_vvel_mean            =   1.3411159584109E-08
(PID.TID 0000.0001) %MON dynstat_vvel_sd              =   1.5603157824418E-02
(PID.TID 0000.0001) %MON dynstat_vvel_del2            =   7.5716374183483E-05
(PID.TID 0000.0001) %MON dynstat_wvel_max             =   1.0496413725195E-08
(PID.TID 0000.0001) %MON dynstat_wvel_min             =  -1.6088754850789E-08
(PID.TID 0000.0001) %MON dynstat_wvel_mean            =   1.2137168899547E-21
(PID.TID 0000.0001) %MON dynstat_wvel_sd              =   6.1460530492725E-09
(PID.TID 0000.0001) %MON dynstat_wvel_del2            =   2.3307124172691E-12
(PID.TID 0000.0001) %MON dynstat_theta_max            =   2.0000000000000E+01
(PID.TID 0000.0001) %MON dynstat_theta_min            =   2.0000000000000E+01
(PID.TID 0000.0001) %MON dynstat_theta_mean           =   2.0000000000000E+01
(PID.TID 0000.0001) %MON dynstat_theta_sd             =   0.0000000000000E+00
(PID.TID 0000.0001) %MON dynstat_theta_del2           =   0.0000000000000E+00
(PID.TID 0000.0001) %MON dynstat_salt_max             =   3.0000000000000E+01
(PID.TID 0000.0001) %MON dynstat_salt_min             =   3.0000000000000E+01
(PID.TID 0000.0001) %MON dynstat_salt_mean            =   3.0000000000000E+01
(PID.TID 0000.0001) %MON dynstat_salt_sd              =   0.0000000000000E+00
(PID.TID 0000.0001) %MON dynstat_salt_del2            =   0.0000000000000E+00
(PID.TID 0000.0001) %MON trAdv_CFL_u_max              =   1.9471442425458E-03
(PID.TID 0000.0001) %MON trAdv_CFL_v_max              =   5.1667126876751E-03
(PID.TID 0000.0001) %MON trAdv_CFL_w_max              =   2.5208064485807E-09
(PID.TID 0000.0001) %MON advcfl_uvel_max              =   1.9472472843563E-03
(PID.TID 0000.0001) %MON advcfl_vvel_max              =   5.1670710162509E-03
(PID.TID 0000.0001) %MON advcfl_wvel_max              =   7.7226023283787E-09
(PID.TID 0000.0001) %MON advcfl_W_hf_max              =   0.0000000000000E+00
(PID.TID 0000.0001) %MON pe_b_mean                    =   4.1408648937061E-07
(PID.TID 0000.0001) %MON ke_max                       =   3.7072620986274E-03
(PID.TID 0000.0001) %MON ke_mean                      =   1.4810949410036E-04
(PID.TID 0000.0001) %MON ke_vol                       =   7.2000000000000E+15
(PID.TID 0000.0001) %MON vort_r_min                   =  -1.4181331907752E-06
(PID.TID 0000.0001) %MON vort_r_max                   =   2.4014695327650E-06
(PID.TID 0000.0001) %MON vort_a_mean                  =   1.0600000000000E-04
(PID.TID 0000.0001) %MON vort_a_sd                    =   3.5378562809868E-06
(PID.TID 0000.0001) %MON vort_p_mean                  =   1.1130000000000E-04
(PID.TID 0000.0001) %MON vort_p_sd                    =   4.1151716677428E-05
(PID.TID 0000.0001) %MON surfExpan_theta_mean         =   2.4234875834534E-20
(PID.TID 0000.0001) %MON surfExpan_salt_mean          =   3.6350418971172E-20
(PID.TID 0000.0001) // =======================================================
(PID.TID 0000.0001) // End MONITOR dynamic field statistics
(PID.TID 0000.0001) // =======================================================
 cg2d: Sum(rhs),rhsMax =  -2.27884503607991E-04  1.43134174731172E-01
 cg2d: Sum(rhs),rhsMax =  -2.28014763795291E-04  1.43143047649641E-01
 cg2d: Sum(rhs),rhsMax =  -2.28144970963533E-04  1.43151906480391E-01
 cg2d: Sum(rhs),rhsMax =  -2.28275125356571E-04  1.43160751208210E-01
 cg2d: Sum(rhs),rhsMax =  -2.28405226954002E-04  1.43169581817918E-01
 cg2d: Sum(rhs),rhsMax =  -2.28535275928784E-04  1.43178398294367E-01
 cg2d: Sum(rhs),rhsMax =  -2.28665272333148E-04  1.43187200622440E-01
 cg2d: Sum(rhs),rhsMax =  -2.28795216241909E-04  1.43195988787053E-01
 cg2d: Sum(rhs),rhsMax =  -2.28925107874735E-04  1.43204762773154E-01
 cg2d: Sum(rhs),rhsMax =  -2.29054947173258E-04  1.43213522565725E-01
 cg2d: Sum(rhs),rhsMax =  -2.29184734288917E-04  1.43222268149776E-01
 cg2d: Sum(rhs),rhsMax =  -2.29314469329786E-04  1.43230999510354E-01
 cg2d: Sum(rhs),rhsMax =  -2.29444152343863E-04  1.43239716632536E-01
 cg2d: Sum(rhs),rhsMax =  -2.29573783527527E-04  1.43248419501431E-01
 cg2d: Sum(rhs),rhsMax =  -2.29703362938953E-04  1.43257108102179E-01
 cg2d: Sum(rhs),rhsMax =  -2.29832890600012E-04  1.43265782419957E-01
 cg2d: Sum(rhs),rhsMax =  -2.29962366688681E-04  1.43274442439970E-01
 cg2d: Sum(rhs),rhsMax =  -2.30091791383375E-04  1.43283088147459E-01
 cg2d: Sum(rhs),rhsMax =  -2.30221164743233E-04  1.43291719527694E-01
 cg2d: Sum(rhs),rhsMax =  -2.30350486797092E-04  1.43300336565978E-01
 cg2d: Sum(rhs),rhsMax =  -2.30479757736845E-04  1.43308939247651E-01
 cg2d: Sum(rhs),rhsMax =  -2.30608977640955E-04  1.43317527558080E-01
 cg2d: Sum(rhs),rhsMax =  -2.30738146638078E-04  1.43326101482667E-01
 cg2d: Sum(rhs),rhsMax =  -2.30867264939946E-04  1.43334661006847E-01
 cg2d: Sum(rhs),rhsMax =  -2.30996332520572E-04  1.43343206116088E-01
 cg2d: Sum(rhs),rhsMax =  -2.31125349618507E-04  1.43351736795889E-01
 cg2d: Sum(rhs),rhsMax =  -2.31254316259065E-04  1.43360253031783E-01
 cg2d: Sum(rhs),rhsMax =  -2.31383232637419E-04  1.43368754809335E-01
 cg2d: Sum(rhs),rhsMax =  -2.31512098787595E-04  1.43377242114144E-01
 cg2d: Sum(rhs),rhsMax =  -2.31640915005034E-04  1.43385714931841E-01
 cg2d: Sum(rhs),rhsMax =  -2.31769681211197E-04  1.43394173248090E-01
 cg2d: Sum(rhs),rhsMax =  -2.31898397778292E-04  1.43402617048588E-01
 cg2d: Sum(rhs),rhsMax =  -2.32027064684113E-04  1.43411046319065E-01
 cg2d: Sum(rhs),rhsMax =  -2.32155682185617E-04  1.43419461045283E-01
 cg2d: Sum(rhs),rhsMax =  -2.32284250325642E-04  1.43427861213039E-01
 cg2d: Sum(rhs),rhsMax =  -2.32412769331019E-04  1.43436246808161E-01
 cg2d: Sum(rhs),rhsMax =  -2.32541239268616E-04  1.43444617816512E-01
 cg2d: Sum(rhs),rhsMax =  -2.32669660449166E-04  1.43452974223985E-01
 cg2d: Sum(rhs),rhsMax =  -2.32798032924238E-04  1.43461316016510E-01
 cg2d: Sum(rhs),rhsMax =  -2.32926356862771E-04  1.43469643180047E-01
 cg2d: Sum(rhs),rhsMax =  -2.33054632353031E-04  1.43477955700591E-01
 cg2d: Sum(rhs),rhsMax =  -2.33182859735838E-04  1.43486253564171E-01
 cg2d: Sum(rhs),rhsMax =  -2.33311039073206E-04  1.43494536756846E-01
 cg2d: Sum(rhs),rhsMax =  -2.33439170485105E-04  1.43502805264712E-01
 cg2d: Sum(rhs),rhsMax =  -2.33567254285660E-04  1.43511059073893E-01
 cg2d: Sum(rhs),rhsMax =  -2.33695290576984E-04  1.43519298170554E-01
 cg2d: Sum(rhs),rhsMax =  -2.33823279608789E-04  1.43527522540887E-01
 cg2d: Sum(rhs),rhsMax =  -2.33951221523425E-04  1.43535732171120E-01
 cg2d: Sum(rhs),rhsMax =  -2.34079116426590E-04  1.43543927047514E-01
 cg2d: Sum(rhs),rhsMax =  -2.34206964646529E-04  1.43552107156364E-01
 cg2d: Sum(rhs),rhsMax =  -2.34334766374959E-04  1.43560272483996E-01
 cg2d: Sum(rhs),rhsMax =  -2.34462521738647E-04  1.43568423016774E-01
 cg2d: Sum(rhs),rhsMax =  -2.34590230999276E-04  1.43576558741092E-01
 cg2d: Sum(rhs),rhsMax =  -2.34717894397748E-04  1.43584679643379E-01
 cg2d: Sum(rhs),rhsMax =  -2.34845511989338E-04  1.43592785710095E-01
 cg2d: Sum(rhs),rhsMax =  -2.34973084207663E-04  1.43600876927738E-01
 cg2d: Sum(rhs),rhsMax =  -2.35100611109996E-04  1.43608953282836E-01
 cg2d: Sum(rhs),rhsMax =  -2.35228092981331E-04  1.43617014761954E-01
 cg2d: Sum(rhs),rhsMax =  -2.35355530082062E-04  1.43625061351688E-01
 cg2d: Sum(rhs),rhsMax =  -2.35482922571546E-04  1.43633093038668E-01
 cg2d: Sum(rhs),rhsMax =  -2.35610270778342E-04  1.43641109809559E-01
 cg2d: Sum(rhs),rhsMax =  -2.35737574892154E-04  1.43649111651058E-01
 cg2d: Sum(rhs),rhsMax =  -2.35864835233067E-04  1.43657098549899E-01
 cg2d: Sum(rhs),rhsMax =  -2.35992051939457E-04  1.43665070492846E-01
 cg2d: Sum(rhs),rhsMax =  -2.36119225264324E-04  1.43673027466700E-01
 cg2d: Sum(rhs),rhsMax =  -2.36246355537333E-04  1.43680969458295E-01
 cg2d: Sum(rhs),rhsMax =  -2.36373442953460E-04  1.43688896454497E-01
 cg2d: Sum(rhs),rhsMax =  -2.36500487817198E-04  1.43696808442209E-01
 cg2d: Sum(rhs),rhsMax =  -2.36627490449464E-04  1.43704705408365E-01
 cg2d: Sum(rhs),rhsMax =  -2.36754451025575E-04  1.43712587339937E-01
 cg2d: Sum(rhs),rhsMax =  -2.36881369943907E-04  1.43720454223927E-01
 cg2d: Sum(rhs),rhsMax =  -2.37008247401156E-04  1.43728306047373E-01
(PID.TID 0000.0001)      cg2d_init_res =   1.01491952137781E-03
(PID.TID 0000.0001)      cg2d_iters(min,last) =      -1      76
(PID.TID 0000.0001)      cg2d_last_res =   9.54215484061946E-08
(PID.TID 0000.0001) // =======================================================
(PID.TID 0000.0001) // Begin MONITOR dynamic field statistics
(PID.TID 0000.0001) // =======================================================
(PID.TID 0000.0001) %MON time_tsnumber                =                  9576
(PID.TID 0000.0001) %MON time_secondsf                =   1.1491200000000E+07
(PID.TID 0000.0001) %MON dynstat_eta_max              =   5.1816627928059E-02
(PID.TID 0000.0001) %MON dynstat_eta_min              =  -2.2691965572118E-02
(PID.TID 0000.0001) %MON dynstat_eta_mean             =   1.7042441121732E-07
(PID.TID 0000.0001) %MON dynstat_eta_sd               =   2.0523580052441E-02
(PID.TID 0000.0001) %MON dynstat_eta_del2             =   1.8036545570532E-05
(PID.TID 0000.0001) %MON dynstat_uvel_max             =   3.2571555311652E-02
(PID.TID 0000.0001) %MON dynstat_uvel_min             =  -1.7135402335285E-02
(PID.TID 0000.0001) %MON dynstat_uvel_mean            =  -1.0513882242871E-07
(PID.TID 0000.0001) %MON dynstat_uvel_sd              =   7.5280156748212E-03
(PID.TID 0000.0001) %MON dynstat_uvel_del2            =   8.6784724816560E-06
(PID.TID 0000.0001) %MON dynstat_vvel_max             =   8.6525824572856E-02
(PID.TID 0000.0001) %MON dynstat_vvel_min             =  -2.9842933674085E-02
(PID.TID 0000.0001) %MON dynstat_vvel_mean            =   1.4030037733618E-08
(PID.TID 0000.0001) %MON dynstat_vvel_sd              =   1.5641266118704E-02
(PID.TID 0000.0001) %MON dynstat_vvel_del2            =   7.5929194703036E-05
(PID.TID 0000.0001) %MON dynstat_wvel_max             =   9.9425890023122E-09
(PID.TID 0000.0001) %MON dynstat_wvel_min             =  -1.5781602818752E-08
(PID.TID 0000.0001) %MON dynstat_wvel_mean            =   1.1649096146963E-21
(PID.TID 0000.0001) %MON dynstat_wvel_sd              =   6.1258128049049E-09
(PID.TID 0000.0001) %MON dynstat_wvel_del2            =   2.3065822015417E-12
(PID.TID 0000.0001) %MON dynstat_theta_max            =   2.0000000000000E+01
(PID.TID 0000.0001) %MON dynstat_theta_min            =   2.0000000000000E+01
(PID.TID 0000.0001) %MON dynstat_theta_mean           =   2.0000000000000E+01
(PID.TID 0000.0001) %MON dynstat_theta_sd             =   0.0000000000000E+00
(PID.TID 0000.0001) %MON dynstat_theta_del2           =   0.0000000000000E+00
(PID.TID 0000.0001) %MON dynstat_salt_max             =   3.0000000000000E+01
(PID.TID 0000.0001) %MON dynstat_salt_min             =   3.0000000000000E+01
(PID.TID 0000.0001) %MON dynstat_salt_mean            =   3.0000000000000E+01
(PID.TID 0000.0001) %MON dynstat_salt_sd              =   0.0000000000000E+00
(PID.TID 0000.0001) %MON dynstat_salt_del2            =   0.0000000000000E+00
(PID.TID 0000.0001) %MON trAdv_CFL_u_max              =   1.9542006634072E-03
(PID.TID 0000.0001) %MON trAdv_CFL_v_max              =   5.1912278495797E-03
(PID.TID 0000.0001) %MON trAdv_CFL_w_max              =   2.3882380547002E-09
(PID.TID 0000.0001) %MON advcfl_uvel_max              =   1.9542933186991E-03
(PID.TID 0000.0001) %MON advcfl_vvel_max              =   5.1915494743713E-03
(PID.TID 0000.0001) %MON advcfl_wvel_max              =   7.5751693530008E-09
(PID.TID 0000.0001) %MON advcfl_W_hf_max              =   0.0000000000000E+00
(PID.TID 0000.0001) %MON pe_b_mean                    =   4.1321420877222E-07
(PID.TID 0000.0001) %MON ke_max                       =   3.7429211991321E-03
(PID.TID 0000.0001) %MON ke_mean                      =   1.4814911102213E-04
(PID.TID 0000.0001) %MON ke_vol                       =   7.2000000000000E+15
(PID.TID 0000.0001) %MON vort_r_min                   =  -1.4165426376517E-06
(PID.TID 0000.0001) %MON vort_r_max                   =   2.4104068624418E-06
(PID.TID 0000.0001) %MON vort_a_mean                  =   1.0600000000000E-04
(PID.TID 0000.0001) %MON vort_a_sd                    =   3.5379404714008E-06
(PID.TID 0000.0001) %MON vort_p_mean                  =   1.1130000000000E-04
(PID.TID 0000.0001) %MON vort_p_sd                    =   4.1151541388468E-05
(PID.TID 0000.0001) %MON surfExpan_theta_mean         =   2.3269879850179E-20
(PID.TID 0000.0001) %MON surfExpan_salt_mean          =   3.4911648880451E-20
(PID.TID 0000.0001) // =======================================================
(PID.TID 0000.0001) // End MONITOR dynamic field statistics
(PID.TID 0000.0001) // =======================================================
 cg2d: Sum(rhs),rhsMax =  -2.37135083574786E-04  1.43736142797347E-01
 cg2d: Sum(rhs),rhsMax =  -2.37261879037123E-04  1.43743964460955E-01
 cg2d: Sum(rhs),rhsMax =  -2.37388633789493E-04  1.43751771025338E-01
 cg2d: Sum(rhs),rhsMax =  -2.37515348371182E-04  1.43759562477669E-01
 cg2d: Sum(rhs),rhsMax =  -2.37642022922936E-04  1.43767338805158E-01
 cg2d: Sum(rhs),rhsMax =  -2.37768657783761E-04  1.43775099995046E-01
 cg2d: Sum(rhs),rhsMax =  -2.37895253247730E-04  1.43782846034612E-01
 cg2d: Sum(rhs),rhsMax =  -2.38021809736321E-04  1.43790576911167E-01
 cg2d: Sum(rhs),rhsMax =  -2.38148327409558E-04  1.43798292612056E-01
 cg2d: Sum(rhs),rhsMax =  -2.38274806732817E-04  1.43805993124660E-01
 cg2d: Sum(rhs),rhsMax =  -2.38401247948830E-04  1.43813678436394E-01
 cg2d: Sum(rhs),rhsMax =  -2.38527651335647E-04  1.43821348534706E-01
 cg2d: Sum(rhs),rhsMax =  -2.38654017476479E-04  1.43829003407080E-01
 cg2d: Sum(rhs),rhsMax =  -2.38780346433270E-04  1.43836643041033E-01
 cg2d: Sum(rhs),rhsMax =  -2.38906638598395E-04  1.43844267424117E-01
 cg2d: Sum(rhs),rhsMax =  -2.39032894385461E-04  1.43851876543921E-01
 cg2d: Sum(rhs),rhsMax =  -2.39159114042723E-04  1.43859470388064E-01
 cg2d: Sum(rhs),rhsMax =  -2.39285297960295E-04  1.43867048944205E-01
 cg2d: Sum(rhs),rhsMax =  -2.39411446586094E-04  1.43874612200033E-01
 cg2d: Sum(rhs),rhsMax =  -2.39537560197256E-04  1.43882160143272E-01
 cg2d: Sum(rhs),rhsMax =  -2.39663639097750E-04  1.43889692761682E-01
 cg2d: Sum(rhs),rhsMax =  -2.39789683788397E-04  1.43897210043061E-01
 cg2d: Sum(rhs),rhsMax =  -2.39915694549044E-04  1.43904711975235E-01
 cg2d: Sum(rhs),rhsMax =  -2.40041671733766E-04  1.43912198546069E-01
 cg2d: Sum(rhs),rhsMax =  -2.40167615821056E-04  1.43919669743462E-01
 cg2d: Sum(rhs),rhsMax =  -2.40293527024323E-04  1.43927125555347E-01
 cg2d: Sum(rhs),rhsMax =  -2.40419405837185E-04  1.43934565969693E-01
 cg2d: Sum(rhs),rhsMax =  -2.40545252617176E-04  1.43941990974502E-01
 cg2d: Sum(rhs),rhsMax =  -2.40671067855502E-04  1.43949400557814E-01
 cg2d: Sum(rhs),rhsMax =  -2.40796851693215E-04  1.43956794707702E-01
 cg2d: Sum(rhs),rhsMax =  -2.40922604767304E-04  1.43964173412271E-01
 cg2d: Sum(rhs),rhsMax =  -2.41048327307416E-04  1.43971536659666E-01
 cg2d: Sum(rhs),rhsMax =  -2.41174019853783E-04  1.43978884438066E-01
 cg2d: Sum(rhs),rhsMax =  -2.41299682654941E-04  1.43986216735680E-01
 cg2d: Sum(rhs),rhsMax =  -2.41425316243719E-04  1.43993533540760E-01
 cg2d: Sum(rhs),rhsMax =  -2.41550920950305E-04  1.44000834841587E-01
 cg2d: Sum(rhs),rhsMax =  -2.41676497139121E-04  1.44008120626477E-01
 cg2d: Sum(rhs),rhsMax =  -2.41802045374483E-04  1.44015390883786E-01
 cg2d: Sum(rhs),rhsMax =  -2.41927565927695E-04  1.44022645601901E-01
 cg2d: Sum(rhs),rhsMax =  -2.42053059232090E-04  1.44029884769244E-01
 cg2d: Sum(rhs),rhsMax =  -2.42178525722649E-04  1.44037108374275E-01
 cg2d: Sum(rhs),rhsMax =  -2.42303965784224E-04  1.44044316405488E-01
 cg2d: Sum(rhs),rhsMax =  -2.42429379869498E-04  1.44051508851409E-01
 cg2d: Sum(rhs),rhsMax =  -2.42554768458319E-04  1.44058685700606E-01
 cg2d: Sum(rhs),rhsMax =  -2.42680131947163E-04  1.44065846941675E-01
 cg2d: Sum(rhs),rhsMax =  -2.42805470616060E-04  1.44072992563253E-01
 cg2d: Sum(rhs),rhsMax =  -2.42930785076471E-04  1.44080122554007E-01
 cg2d: Sum(rhs),rhsMax =  -2.43056075610306E-04  1.44087236902644E-01
 cg2d: Sum(rhs),rhsMax =  -2.43181342717360E-04  1.44094335597905E-01
 cg2d: Sum(rhs),rhsMax =  -2.43306586830351E-04  1.44101418628566E-01
 cg2d: Sum(rhs),rhsMax =  -2.43431808402828E-04  1.44108485983437E-01
 cg2d: Sum(rhs),rhsMax =  -2.43557007795792E-04  1.44115537651366E-01
 cg2d: Sum(rhs),rhsMax =  -2.43682185504626E-04  1.44122573621234E-01
 cg2d: Sum(rhs),rhsMax =  -2.43807341921770E-04  1.44129593881960E-01
 cg2d: Sum(rhs),rhsMax =  -2.43932477572264E-04  1.44136598422497E-01
 cg2d: Sum(rhs),rhsMax =  -2.44057592732409E-04  1.44143587231832E-01
 cg2d: Sum(rhs),rhsMax =  -2.44182687999336E-04  1.44150560298992E-01
 cg2d: Sum(rhs),rhsMax =  -2.44307763667280E-04  1.44157517613035E-01
 cg2d: Sum(rhs),rhsMax =  -2.44432820206566E-04  1.44164459163057E-01
 cg2d: Sum(rhs),rhsMax =  -2.44557858174763E-04  1.44171384938189E-01
 cg2d: Sum(rhs),rhsMax =  -2.44682877850605E-04  1.44178294927598E-01
 cg2d: Sum(rhs),rhsMax =  -2.44807879750657E-04  1.44185189120486E-01
 cg2d: Sum(rhs),rhsMax =  -2.44932864284059E-04  1.44192067506090E-01
 cg2d: Sum(rhs),rhsMax =  -2.45057831883563E-04  1.44198930073686E-01
 cg2d: Sum(rhs),rhsMax =  -2.45182782935245E-04  1.44205776812582E-01
 cg2d: Sum(rhs),rhsMax =  -2.45307717844852E-04  1.44212607712123E-01
 cg2d: Sum(rhs),rhsMax =  -2.45432637165510E-04  1.44219422761692E-01
 cg2d: Sum(rhs),rhsMax =  -2.45557541332743E-04  1.44226221950703E-01
 cg2d: Sum(rhs),rhsMax =  -2.45682430642112E-04  1.44233005268609E-01
 cg2d: Sum(rhs),rhsMax =  -2.45807305616752E-04  1.44239772704900E-01
 cg2d: Sum(rhs),rhsMax =  -2.45932166733534E-04  1.44246524249100E-01
 cg2d: Sum(rhs),rhsMax =  -2.46057014320848E-04  1.44253259890768E-01
(PID.TID 0000.0001)      cg2d_init_res =   1.00585262481694E-03
(PID.TID 0000.0001)      cg2d_iters(min,last) =      -1      76
(PID.TID 0000.0001)      cg2d_last_res =   9.29831037094890E-08
(PID.TID 0000.0001) // =======================================================
(PID.TID 0000.0001) // Begin MONITOR dynamic field statistics
(PID.TID 0000.0001) // =======================================================
(PID.TID 0000.0001) %MON time_tsnumber                =                  9648
(PID.TID 0000.0001) %MON time_secondsf                =   1.1577600000000E+07
(PID.TID 0000.0001) %MON dynstat_eta_max              =   5.2557341532150E-02
(PID.TID 0000.0001) %MON dynstat_eta_min              =  -2.2233714547454E-02
(PID.TID 0000.0001) %MON dynstat_eta_mean             =   1.7757094244784E-07
(PID.TID 0000.0001) %MON dynstat_eta_sd               =   2.0468387689602E-02
(PID.TID 0000.0001) %MON dynstat_eta_del2             =   1.8075585698610E-05
(PID.TID 0000.0001) %MON dynstat_uvel_max             =   3.2675926727171E-02
(PID.TID 0000.0001) %MON dynstat_uvel_min             =  -1.7100543795133E-02
(PID.TID 0000.0001) %MON dynstat_uvel_mean            =  -7.5188898966346E-08
(PID.TID 0000.0001) %MON dynstat_uvel_sd              =   7.4465891373534E-03
(PID.TID 0000.0001) %MON dynstat_uvel_del2            =   8.6389712573667E-06
(PID.TID 0000.0001) %MON dynstat_vvel_max             =   8.6889438056201E-02
(PID.TID 0000.0001) %MON dynstat_vvel_min             =  -2.9913442100840E-02
(PID.TID 0000.0001) %MON dynstat_vvel_mean            =   1.4500175096172E-08
(PID.TID 0000.0001) %MON dynstat_vvel_sd              =   1.5671981109290E-02
(PID.TID 0000.0001) %MON dynstat_vvel_del2            =   7.6125484375758E-05
(PID.TID 0000.0001) %MON dynstat_wvel_max             =   9.4182691801689E-09
(PID.TID 0000.0001) %MON dynstat_wvel_min             =  -1.5368806978222E-08
(PID.TID 0000.0001) %MON dynstat_wvel_mean            =   3.0785748903226E-21
(PID.TID 0000.0001) %MON dynstat_wvel_sd              =   6.1078601144512E-09
(PID.TID 0000.0001) %MON dynstat_wvel_del2            =   2.2807894854872E-12
(PID.TID 0000.0001) %MON dynstat_theta_max            =   2.0000000000000E+01
(PID.TID 0000.0001) %MON dynstat_theta_min            =   2.0000000000000E+01
(PID.TID 0000.0001) %MON dynstat_theta_mean           =   2.0000000000000E+01
(PID.TID 0000.0001) %MON dynstat_theta_sd             =   0.0000000000000E+00
(PID.TID 0000.0001) %MON dynstat_theta_del2           =   0.0000000000000E+00
(PID.TID 0000.0001) %MON dynstat_salt_max             =   3.0000000000000E+01
(PID.TID 0000.0001) %MON dynstat_salt_min             =   3.0000000000000E+01
(PID.TID 0000.0001) %MON dynstat_salt_mean            =   3.0000000000000E+01
(PID.TID 0000.0001) %MON dynstat_salt_sd              =   0.0000000000000E+00
(PID.TID 0000.0001) %MON dynstat_salt_del2            =   0.0000000000000E+00
(PID.TID 0000.0001) %MON trAdv_CFL_u_max              =   1.9604742999507E-03
(PID.TID 0000.0001) %MON trAdv_CFL_v_max              =   5.2130732113469E-03
(PID.TID 0000.0001) %MON trAdv_CFL_w_max              =   2.2622823968064E-09
(PID.TID 0000.0001) %MON advcfl_uvel_max              =   1.9605556036303E-03
(PID.TID 0000.0001) %MON advcfl_vvel_max              =   5.2133662833721E-03
(PID.TID 0000.0001) %MON advcfl_wvel_max              =   7.3770273495466E-09
(PID.TID 0000.0001) %MON advcfl_W_hf_max              =   0.0000000000000E+00
(PID.TID 0000.0001) %MON pe_b_mean                    =   4.1099475164515E-07
(PID.TID 0000.0001) %MON ke_max                       =   3.7748517556516E-03
(PID.TID 0000.0001) %MON ke_mean                      =   1.4802248515754E-04
(PID.TID 0000.0001) %MON ke_vol                       =   7.2000000000000E+15
(PID.TID 0000.0001) %MON vort_r_min                   =  -1.4150648270378E-06
(PID.TID 0000.0001) %MON vort_r_max                   =   2.4178673554533E-06
(PID.TID 0000.0001) %MON vort_a_mean                  =   1.0600000000000E-04
(PID.TID 0000.0001) %MON vort_a_sd                    =   3.5380137196018E-06
(PID.TID 0000.0001) %MON vort_p_mean                  =   1.1130000000000E-04
(PID.TID 0000.0001) %MON vort_p_sd                    =   4.1151361000304E-05
(PID.TID 0000.0001) %MON surfExpan_theta_mean         =   6.1520369045967E-20
(PID.TID 0000.0001) %MON surfExpan_salt_mean          =   9.2272658649664E-20
(PID.TID 0000.0001) // =======================================================
(PID.TID 0000.0001) // End MONITOR dynamic field statistics
(PID.TID 0000.0001) // =======================================================
 cg2d: Sum(rhs),rhsMax =  -2.46181848812871E-04  1.44259979619501E-01
 cg2d: Sum(rhs),rhsMax =  -2.46306670605202E-04  1.44266683424931E-01
 cg2d: Sum(rhs),rhsMax =  -2.46431480221247E-04  1.44273371296725E-01
 cg2d: Sum(rhs),rhsMax =  -2.46556278055335E-04  1.44280043224589E-01
 cg2d: Sum(rhs),rhsMax =  -2.46681064445012E-04  1.44286699198261E-01
 cg2d: Sum(rhs),rhsMax =  -2.46805839790262E-04  1.44293339207517E-01
 cg2d: Sum(rhs),rhsMax =  -2.46930604594391E-04  1.44299963242169E-01
 cg2d: Sum(rhs),rhsMax =  -2.47055359222436E-04  1.44306571292067E-01
 cg2d: Sum(rhs),rhsMax =  -2.47180104129047E-04  1.44313163347093E-01
 cg2d: Sum(rhs),rhsMax =  -2.47304839646953E-04  1.44319739397167E-01
 cg2d: Sum(rhs),rhsMax =  -2.47429566158134E-04  1.44326299432247E-01
 cg2d: Sum(rhs),rhsMax =  -2.47554284147825E-04  1.44332843442324E-01
 cg2d: Sum(rhs),rhsMax =  -2.47678993905719E-04  1.44339371417428E-01
 cg2d: Sum(rhs),rhsMax =  -2.47803696016293E-04  1.44345883347622E-01
 cg2d: Sum(rhs),rhsMax =  -2.47928390646876E-04  1.44352379223009E-01
 cg2d: Sum(rhs),rhsMax =  -2.48053078177306E-04  1.44358859033725E-01
 cg2d: Sum(rhs),rhsMax =  -2.48177759170682E-04  1.44365322769943E-01
 cg2d: Sum(rhs),rhsMax =  -2.48302433845420E-04  1.44371770421874E-01
 cg2d: Sum(rhs),rhsMax =  -2.48427102606843E-04  1.44378201979762E-01
 cg2d: Sum(rhs),rhsMax =  -2.48551765809317E-04  1.44384617433893E-01
 cg2d: Sum(rhs),rhsMax =  -2.48676423819121E-04  1.44391016774583E-01
 cg2d: Sum(rhs),rhsMax =  -2.48801077114721E-04  1.44397399992186E-01
 cg2d: Sum(rhs),rhsMax =  -2.48925725887804E-04  1.44403767077096E-01
 cg2d: Sum(rhs),rhsMax =  -2.49050370506708E-04  1.44410118019738E-01
 cg2d: Sum(rhs),rhsMax =  -2.49175011384105E-04  1.44416452810579E-01
 cg2d: Sum(rhs),rhsMax =  -2.49299648714071E-04  1.44422771440118E-01
 cg2d: Sum(rhs),rhsMax =  -2.49424282985434E-04  1.44429073898892E-01
 cg2d: Sum(rhs),rhsMax =  -2.49548914428490E-04  1.44435360177475E-01
 cg2d: Sum(rhs),rhsMax =  -2.49673543289222E-04  1.44441630266476E-01
 cg2d: Sum(rhs),rhsMax =  -2.49798169978790E-04  1.44447884156542E-01
 cg2d: Sum(rhs),rhsMax =  -2.49922794867552E-04  1.44454121838357E-01
 cg2d: Sum(rhs),rhsMax =  -2.50047418177615E-04  1.44460343302639E-01
 cg2d: Sum(rhs),rhsMax =  -2.50172040050009E-04  1.44466548540144E-01
 cg2d: Sum(rhs),rhsMax =  -2.50296661047473E-04  1.44472737541666E-01
 cg2d: Sum(rhs),rhsMax =  -2.50421281207436E-04  1.44478910298034E-01
 cg2d: Sum(rhs),rhsMax =  -2.50545900972987E-04  1.44485066800113E-01
 cg2d: Sum(rhs),rhsMax =  -2.50670520431886E-04  1.44491207038807E-01
 cg2d: Sum(rhs),rhsMax =  -2.50795139957071E-04  1.44497331005053E-01
 cg2d: Sum(rhs),rhsMax =  -2.50919759776648E-04  1.44503438689829E-01
 cg2d: Sum(rhs),rhsMax =  -2.51044379983223E-04  1.44509530084146E-01
 cg2d: Sum(rhs),rhsMax =  -2.51169001009348E-04  1.44515605179054E-01
 cg2d: Sum(rhs),rhsMax =  -2.51293622966292E-04  1.44521663965639E-01
 cg2d: Sum(rhs),rhsMax =  -2.51418246038812E-04  1.44527706435022E-01
 cg2d: Sum(rhs),rhsMax =  -2.51542870487358E-04  1.44533732578366E-01
 cg2d: Sum(rhs),rhsMax =  -2.51667496436184E-04  1.44539742386864E-01
 cg2d: Sum(rhs),rhsMax =  -2.51792124103490E-04  1.44545735851751E-01
 cg2d: Sum(rhs),rhsMax =  -2.51916753695835E-04  1.44551712964296E-01
 cg2d: Sum(rhs),rhsMax =  -2.52041385279428E-04  1.44557673715806E-01
 cg2d: Sum(rhs),rhsMax =  -2.52166019130424E-04  1.44563618097624E-01
 cg2d: Sum(rhs),rhsMax =  -2.52290655322317E-04  1.44569546101132E-01
 cg2d: Sum(rhs),rhsMax =  -2.52415293886687E-04  1.44575457717746E-01
 cg2d: Sum(rhs),rhsMax =  -2.52539934995548E-04  1.44581352938920E-01
 cg2d: Sum(rhs),rhsMax =  -2.52664578780236E-04  1.44587231756147E-01
 cg2d: Sum(rhs),rhsMax =  -2.52789225178740E-04  1.44593094160953E-01
 cg2d: Sum(rhs),rhsMax =  -2.52913874446724E-04  1.44598940144903E-01
 cg2d: Sum(rhs),rhsMax =  -2.53038526610209E-04  1.44604769699602E-01
 cg2d: Sum(rhs),rhsMax =  -2.53202396143598E-04  1.44610582896705E-01
 cg2d: Sum(rhs),rhsMax =  -2.53366196148434E-04  1.44616379576838E-01
 cg2d: Sum(rhs),rhsMax =  -2.53529949824987E-04  1.44622159797190E-01
 cg2d: Sum(rhs),rhsMax =  -2.53693624234175E-04  1.44627923553460E-01
 cg2d: Sum(rhs),rhsMax =  -2.53857210751361E-04  1.44633670838871E-01
 cg2d: Sum(rhs),rhsMax =  -2.54020708590104E-04  1.44639401644698E-01
 cg2d: Sum(rhs),rhsMax =  -2.54184121730587E-04  1.44645115962834E-01
 cg2d: Sum(rhs),rhsMax =  -2.54347454569715E-04  1.44650813785294E-01
 cg2d: Sum(rhs),rhsMax =  -2.54510709292317E-04  1.44656495104289E-01
 cg2d: Sum(rhs),rhsMax =  -2.54673885944585E-04  1.44662159912094E-01
 cg2d: Sum(rhs),rhsMax =  -2.54836983275422E-04  1.44667808200903E-01
 cg2d: Sum(rhs),rhsMax =  -2.54999999803073E-04  1.44673439962791E-01
 cg2d: Sum(rhs),rhsMax =  -2.55162934535527E-04  1.44679055189768E-01
 cg2d: Sum(rhs),rhsMax =  -2.55325787042311E-04  1.44684653873862E-01
 cg2d: Sum(rhs),rhsMax =  -2.55488557255475E-04  1.44690236007173E-01
 cg2d: Sum(rhs),rhsMax =  -2.55651245193471E-04  1.44695801581876E-01
(PID.TID 0000.0001)      cg2d_init_res =   9.98782695625897E-04
(PID.TID 0000.0001)      cg2d_iters(min,last) =      -1      75
(PID.TID 0000.0001)      cg2d_last_res =   9.79031167353099E-08
(PID.TID 0000.0001) // =======================================================
(PID.TID 0000.0001) // Begin MONITOR dynamic field statistics
(PID.TID 0000.0001) // =======================================================
(PID.TID 0000.0001) %MON time_tsnumber                =                  9720
(PID.TID 0000.0001) %MON time_secondsf                =   1.1664000000000E+07
(PID.TID 0000.0001) %MON dynstat_eta_max              =   5.3271135766098E-02
(PID.TID 0000.0001) %MON dynstat_eta_min              =  -2.1761325269950E-02
(PID.TID 0000.0001) %MON dynstat_eta_mean             =   1.8508304844161E-07
(PID.TID 0000.0001) %MON dynstat_eta_sd               =   2.0380013633215E-02
(PID.TID 0000.0001) %MON dynstat_eta_del2             =   1.8113895045581E-05
(PID.TID 0000.0001) %MON dynstat_uvel_max             =   3.2766150186834E-02
(PID.TID 0000.0001) %MON dynstat_uvel_min             =  -1.7050635779436E-02
(PID.TID 0000.0001) %MON dynstat_uvel_mean            =  -4.4404223941365E-08
(PID.TID 0000.0001) %MON dynstat_uvel_sd              =   7.3579436590138E-03
(PID.TID 0000.0001) %MON dynstat_uvel_del2            =   8.5983295081917E-06
(PID.TID 0000.0001) %MON dynstat_vvel_max             =   8.7216732355953E-02
(PID.TID 0000.0001) %MON dynstat_vvel_min             =  -3.0008800475195E-02
(PID.TID 0000.0001) %MON dynstat_vvel_mean            =   1.4814566641137E-08
(PID.TID 0000.0001) %MON dynstat_vvel_sd              =   1.5694810040450E-02
(PID.TID 0000.0001) %MON dynstat_vvel_del2            =   7.6302983441162E-05
(PID.TID 0000.0001) %MON dynstat_wvel_max             =   8.8143273105379E-09
(PID.TID 0000.0001) %MON dynstat_wvel_min             =  -1.4947789798607E-08
(PID.TID 0000.0001) %MON dynstat_wvel_mean            =   3.0677971254691E-21
(PID.TID 0000.0001) %MON dynstat_wvel_sd              =   6.0921161219144E-09
(PID.TID 0000.0001) %MON dynstat_wvel_del2            =   2.2469914063879E-12
(PID.TID 0000.0001) %MON dynstat_theta_max            =   2.0000000000000E+01
(PID.TID 0000.0001) %MON dynstat_theta_min            =   2.0000000000000E+01
(PID.TID 0000.0001) %MON dynstat_theta_mean           =   2.0000000000000E+01
(PID.TID 0000.0001) %MON dynstat_theta_sd             =   0.0000000000000E+00
(PID.TID 0000.0001) %MON dynstat_theta_del2           =   0.0000000000000E+00
(PID.TID 0000.0001) %MON dynstat_salt_max             =   3.0000000000000E+01
(PID.TID 0000.0001) %MON dynstat_salt_min             =   3.0000000000000E+01
(PID.TID 0000.0001) %MON dynstat_salt_mean            =   3.0000000000000E+01
(PID.TID 0000.0001) %MON dynstat_salt_sd              =   0.0000000000000E+00
(PID.TID 0000.0001) %MON dynstat_salt_del2            =   0.0000000000000E+00
(PID.TID 0000.0001) %MON trAdv_CFL_u_max              =   1.9658999030422E-03
(PID.TID 0000.0001) %MON trAdv_CFL_v_max              =   5.2327513363109E-03
(PID.TID 0000.0001) %MON trAdv_CFL_w_max              =   2.1176433215383E-09
(PID.TID 0000.0001) %MON advcfl_uvel_max              =   1.9659690112100E-03
(PID.TID 0000.0001) %MON advcfl_vvel_max              =   5.2330039413572E-03
(PID.TID 0000.0001) %MON advcfl_wvel_max              =   7.1749391033314E-09
(PID.TID 0000.0001) %MON advcfl_W_hf_max              =   0.0000000000000E+00
(PID.TID 0000.0001) %MON pe_b_mean                    =   4.0745340156551E-07
(PID.TID 0000.0001) %MON ke_max                       =   3.8027246304278E-03
(PID.TID 0000.0001) %MON ke_mean                      =   1.4772931190613E-04
(PID.TID 0000.0001) %MON ke_vol                       =   7.2000000000000E+15
(PID.TID 0000.0001) %MON vort_r_min                   =  -1.4218602412821E-06
(PID.TID 0000.0001) %MON vort_r_max                   =   2.4237935635295E-06
(PID.TID 0000.0001) %MON vort_a_mean                  =   1.0600000000000E-04
(PID.TID 0000.0001) %MON vort_a_sd                    =   3.5380750421859E-06
(PID.TID 0000.0001) %MON vort_p_mean                  =   1.1130000000000E-04
(PID.TID 0000.0001) %MON vort_p_sd                    =   4.1151177303311E-05
(PID.TID 0000.0001) %MON surfExpan_theta_mean         =   6.1358523200599E-20
(PID.TID 0000.0001) %MON surfExpan_salt_mean          =   9.2045837618571E-20
(PID.TID 0000.0001) // =======================================================
(PID.TID 0000.0001) // End MONITOR dynamic field statistics
(PID.TID 0000.0001) // =======================================================
 cg2d: Sum(rhs),rhsMax =  -2.55813850640309E-04  1.44701350590204E-01
 cg2d: Sum(rhs),rhsMax =  -2.55976373197708E-04  1.44706883024436E-01
 cg2d: Sum(rhs),rhsMax =  -2.56138812434142E-04  1.44712398876886E-01
 cg2d: Sum(rhs),rhsMax =  -2.56301167856021E-04  1.44717898139904E-01
 cg2d: Sum(rhs),rhsMax =  -2.56463438911331E-04  1.44723380805877E-01
 cg2d: Sum(rhs),rhsMax =  -2.56625625187373E-04  1.44728846867230E-01
 cg2d: Sum(rhs),rhsMax =  -2.56787726194948E-04  1.44734296316427E-01
 cg2d: Sum(rhs),rhsMax =  -2.56949741475475E-04  1.44739729145966E-01
 cg2d: Sum(rhs),rhsMax =  -2.57111670273390E-04  1.44745145348379E-01
 cg2d: Sum(rhs),rhsMax =  -2.57273512290295E-04  1.44750544916231E-01
 cg2d: Sum(rhs),rhsMax =  -2.57435266834831E-04  1.44755927842125E-01
 cg2d: Sum(rhs),rhsMax =  -2.57596933299999E-04  1.44761294118702E-01
 cg2d: Sum(rhs),rhsMax =  -2.57758511058887E-04  1.44766643738641E-01
 cg2d: Sum(rhs),rhsMax =  -2.57919999417128E-04  1.44771976694659E-01
 cg2d: Sum(rhs),rhsMax =  -2.58081397653901E-04  1.44777292979514E-01
 cg2d: Sum(rhs),rhsMax =  -2.58242705011544E-04  1.44782592586000E-01
 cg2d: Sum(rhs),rhsMax =  -2.58403920734581E-04  1.44787875506952E-01
 cg2d: Sum(rhs),rhsMax =  -2.58565044105035E-04  1.44793141735240E-01
 cg2d: Sum(rhs),rhsMax =  -2.58726074139395E-04  1.44798391263768E-01
 cg2d: Sum(rhs),rhsMax =  -2.58887010048802E-04  1.44803624085482E-01
 cg2d: Sum(rhs),rhsMax =  -2.59047850905951E-04  1.44808840193363E-01
 cg2d: Sum(rhs),rhsMax =  -2.59208595687024E-04  1.44814039580427E-01
 cg2d: Sum(rhs),rhsMax =  -2.59369243576136E-04  1.44819222239732E-01
 cg2d: Sum(rhs),rhsMax =  -2.59529793290695E-04  1.44824388164371E-01
 cg2d: Sum(rhs),rhsMax =  -2.59690244038722E-04  1.44829537347476E-01
 cg2d: Sum(rhs),rhsMax =  -2.59850594466422E-04  1.44834669782216E-01
 cg2d: Sum(rhs),rhsMax =  -2.60010843505893E-04  1.44839785461798E-01
 cg2d: Sum(rhs),rhsMax =  -2.60214661614613E-04  1.44844884335695E-01
 cg2d: Sum(rhs),rhsMax =  -2.60418313765221E-04  1.44849966492032E-01
 cg2d: Sum(rhs),rhsMax =  -2.60621739334549E-04  1.44855031868408E-01
 cg2d: Sum(rhs),rhsMax =  -2.60824924372492E-04  1.44860080464174E-01
 cg2d: Sum(rhs),rhsMax =  -2.61027855586953E-04  1.44865112270790E-01
 cg2d: Sum(rhs),rhsMax =  -2.61230530759652E-04  1.44870127281520E-01
 cg2d: Sum(rhs),rhsMax =  -2.61432954176528E-04  1.44875125489790E-01
 cg2d: Sum(rhs),rhsMax =  -2.61635130502746E-04  1.44880106889183E-01
 cg2d: Sum(rhs),rhsMax =  -2.61837061517061E-04  1.44885071473539E-01
 cg2d: Sum(rhs),rhsMax =  -2.62038746006036E-04  1.44890019236810E-01
 cg2d: Sum(rhs),rhsMax =  -2.62240180772286E-04  1.44894950172873E-01
 cg2d: Sum(rhs),rhsMax =  -2.62441362357485E-04  1.44899864275452E-01
 cg2d: Sum(rhs),rhsMax =  -2.62642287974730E-04  1.44904761538185E-01
 cg2d: Sum(rhs),rhsMax =  -2.62842955458930E-04  1.44909641954709E-01
 cg2d: Sum(rhs),rhsMax =  -2.63043362882192E-04  1.44914505518722E-01
 cg2d: Sum(rhs),rhsMax =  -2.63243508494047E-04  1.44919352223995E-01
 cg2d: Sum(rhs),rhsMax =  -2.63443390113801E-04  1.44924182064362E-01
 cg2d: Sum(rhs),rhsMax =  -2.63643005343843E-04  1.44928995033708E-01
 cg2d: Sum(rhs),rhsMax =  -2.63842351363285E-04  1.44933791125955E-01
 cg2d: Sum(rhs),rhsMax =  -2.64041425422690E-04  1.44938570335075E-01
 cg2d: Sum(rhs),rhsMax =  -2.64240224305707E-04  1.44943332655075E-01
 cg2d: Sum(rhs),rhsMax =  -2.64438745144820E-04  1.44948078080009E-01
 cg2d: Sum(rhs),rhsMax =  -2.64636984660149E-04  1.44952806603962E-01
 cg2d: Sum(rhs),rhsMax =  -2.64834939610476E-04  1.44957518221055E-01
 cg2d: Sum(rhs),rhsMax =  -2.65032606373981E-04  1.44962212925441E-01
 cg2d: Sum(rhs),rhsMax =  -2.65229981111582E-04  1.44966890711305E-01
 cg2d: Sum(rhs),rhsMax =  -2.65427060065506E-04  1.44971551572867E-01
 cg2d: Sum(rhs),rhsMax =  -2.65623839148442E-04  1.44976195504386E-01
 cg2d: Sum(rhs),rhsMax =  -2.65820313927256E-04  1.44980822500161E-01
 cg2d: Sum(rhs),rhsMax =  -2.66016479963429E-04  1.44985432554532E-01
 cg2d: Sum(rhs),rhsMax =  -2.66212332603637E-04  1.44990025661878E-01
 cg2d: Sum(rhs),rhsMax =  -2.66407866881207E-04  1.44994601816619E-01
 cg2d: Sum(rhs),rhsMax =  -2.66603077541891E-04  1.44999161013213E-01
 cg2d: Sum(rhs),rhsMax =  -2.66797959209713E-04  1.45003703246155E-01
 cg2d: Sum(rhs),rhsMax =  -2.66992506172284E-04  1.45008228509977E-01
 cg2d: Sum(rhs),rhsMax =  -2.67186712640089E-04  1.45012736799248E-01
 cg2d: Sum(rhs),rhsMax =  -2.67380572433283E-04  1.45017228108573E-01
 cg2d: Sum(rhs),rhsMax =  -2.67574078982174E-04  1.45021702432598E-01
 cg2d: Sum(rhs),rhsMax =  -2.67767225790587E-04  1.45026159766004E-01
 cg2d: Sum(rhs),rhsMax =  -2.67960005749858E-04  1.45030600103511E-01
 cg2d: Sum(rhs),rhsMax =  -2.68152411544095E-04  1.45035023439879E-01
 cg2d: Sum(rhs),rhsMax =  -2.68344435687437E-04  1.45039429769905E-01
 cg2d: Sum(rhs),rhsMax =  -2.68536070412949E-04  1.45043819088426E-01
 cg2d: Sum(rhs),rhsMax =  -2.68727307485686E-04  1.45048191390313E-01
 cg2d: Sum(rhs),rhsMax =  -2.68918138706126E-04  1.45052546670478E-01
(PID.TID 0000.0001)      cg2d_init_res =   9.93697452202943E-04
(PID.TID 0000.0001)      cg2d_iters(min,last) =      -1      74
(PID.TID 0000.0001)      cg2d_last_res =   9.18212359611463E-08
(PID.TID 0000.0001) // =======================================================
(PID.TID 0000.0001) // Begin MONITOR dynamic field statistics
(PID.TID 0000.0001) // =======================================================
(PID.TID 0000.0001) %MON time_tsnumber                =                  9792
(PID.TID 0000.0001) %MON time_secondsf                =   1.1750400000000E+07
(PID.TID 0000.0001) %MON dynstat_eta_max              =   5.3920184939816E-02
(PID.TID 0000.0001) %MON dynstat_eta_min              =  -2.1280234912846E-02
(PID.TID 0000.0001) %MON dynstat_eta_mean             =   1.9518024364071E-07
(PID.TID 0000.0001) %MON dynstat_eta_sd               =   2.0259083729876E-02
(PID.TID 0000.0001) %MON dynstat_eta_del2             =   1.8150951089357E-05
(PID.TID 0000.0001) %MON dynstat_uvel_max             =   3.2841291981718E-02
(PID.TID 0000.0001) %MON dynstat_uvel_min             =  -1.6985705635951E-02
(PID.TID 0000.0001) %MON dynstat_uvel_mean            =  -1.3165462712242E-08
(PID.TID 0000.0001) %MON dynstat_uvel_sd              =   7.2629573400920E-03
(PID.TID 0000.0001) %MON dynstat_uvel_del2            =   8.5570323149454E-06
(PID.TID 0000.0001) %MON dynstat_vvel_max             =   8.7494193358650E-02
(PID.TID 0000.0001) %MON dynstat_vvel_min             =  -3.0127726365457E-02
(PID.TID 0000.0001) %MON dynstat_vvel_mean            =   1.4964371520312E-08
(PID.TID 0000.0001) %MON dynstat_vvel_sd              =   1.5709365957869E-02
(PID.TID 0000.0001) %MON dynstat_vvel_del2            =   7.6459667407272E-05
(PID.TID 0000.0001) %MON dynstat_wvel_max             =   8.1735704571474E-09
(PID.TID 0000.0001) %MON dynstat_wvel_min             =  -1.4446003584308E-08
(PID.TID 0000.0001) %MON dynstat_wvel_mean            =   9.4302019230478E-22
(PID.TID 0000.0001) %MON dynstat_wvel_sd              =   6.0783550729058E-09
(PID.TID 0000.0001) %MON dynstat_wvel_del2            =   2.2244350272424E-12
(PID.TID 0000.0001) %MON dynstat_theta_max            =   2.0000000000000E+01
(PID.TID 0000.0001) %MON dynstat_theta_min            =   2.0000000000000E+01
(PID.TID 0000.0001) %MON dynstat_theta_mean           =   2.0000000000000E+01
(PID.TID 0000.0001) %MON dynstat_theta_sd             =   0.0000000000000E+00
(PID.TID 0000.0001) %MON dynstat_theta_del2           =   0.0000000000000E+00
(PID.TID 0000.0001) %MON dynstat_salt_max             =   3.0000000000000E+01
(PID.TID 0000.0001) %MON dynstat_salt_min             =   3.0000000000000E+01
(PID.TID 0000.0001) %MON dynstat_salt_mean            =   3.0000000000000E+01
(PID.TID 0000.0001) %MON dynstat_salt_sd              =   0.0000000000000E+00
(PID.TID 0000.0001) %MON dynstat_salt_del2            =   0.0000000000000E+00
(PID.TID 0000.0001) %MON trAdv_CFL_u_max              =   1.9704213188057E-03
(PID.TID 0000.0001) %MON trAdv_CFL_v_max              =   5.2494414764160E-03
(PID.TID 0000.0001) %MON trAdv_CFL_w_max              =   1.9636963214725E-09
(PID.TID 0000.0001) %MON advcfl_uvel_max              =   1.9704775189031E-03
(PID.TID 0000.0001) %MON advcfl_vvel_max              =   5.2496516015190E-03
(PID.TID 0000.0001) %MON advcfl_wvel_max              =   6.9340817204677E-09
(PID.TID 0000.0001) %MON advcfl_W_hf_max              =   0.0000000000000E+00
(PID.TID 0000.0001) %MON pe_b_mean                    =   4.0263229461358E-07
(PID.TID 0000.0001) %MON ke_max                       =   3.8262618955786E-03
(PID.TID 0000.0001) %MON ke_mean                      =   1.4727124132697E-04
(PID.TID 0000.0001) %MON ke_vol                       =   7.2000000000000E+15
(PID.TID 0000.0001) %MON vort_r_min                   =  -1.4286852301315E-06
(PID.TID 0000.0001) %MON vort_r_max                   =   2.4281457713619E-06
(PID.TID 0000.0001) %MON vort_a_mean                  =   1.0600000000000E-04
(PID.TID 0000.0001) %MON vort_a_sd                    =   3.5381236063297E-06
(PID.TID 0000.0001) %MON vort_p_mean                  =   1.1130000000000E-04
(PID.TID 0000.0001) %MON vort_p_sd                    =   4.1150992139277E-05
(PID.TID 0000.0001) %MON surfExpan_theta_mean         =   1.8856541019987E-20
(PID.TID 0000.0001) %MON surfExpan_salt_mean          =   2.8286548412224E-20
(PID.TID 0000.0001) // =======================================================
(PID.TID 0000.0001) // End MONITOR dynamic field statistics
(PID.TID 0000.0001) // =======================================================
 cg2d: Sum(rhs),rhsMax =  -2.69108555251546E-04  1.45056884923871E-01
 cg2d: Sum(rhs),rhsMax =  -2.69298548186513E-04  1.45061206145481E-01
 cg2d: Sum(rhs),rhsMax =  -2.69488108410593E-04  1.45065510330331E-01
 cg2d: Sum(rhs),rhsMax =  -2.69677226456378E-04  1.45069797473485E-01
 cg2d: Sum(rhs),rhsMax =  -2.69865892719316E-04  1.45074067570045E-01
 cg2d: Sum(rhs),rhsMax =  -2.70054097295217E-04  1.45078320615151E-01
 cg2d: Sum(rhs),rhsMax =  -2.70241830192376E-04  1.45082556603980E-01
 cg2d: Sum(rhs),rhsMax =  -2.70429081327119E-04  1.45086775531749E-01
 cg2d: Sum(rhs),rhsMax =  -2.70615840509175E-04  1.45090977393711E-01
 cg2d: Sum(rhs),rhsMax =  -2.70802097354546E-04  1.45095162185158E-01
 cg2d: Sum(rhs),rhsMax =  -2.70987841742694E-04  1.45099329901421E-01
 cg2d: Sum(rhs),rhsMax =  -2.71173063531253E-04  1.45103480537868E-01
 cg2d: Sum(rhs),rhsMax =  -2.71357752828181E-04  1.45107614089905E-01
 cg2d: Sum(rhs),rhsMax =  -2.71541899954699E-04  1.45111730552977E-01
 cg2d: Sum(rhs),rhsMax =  -2.71725495551299E-04  1.45115829922567E-01
 cg2d: Sum(rhs),rhsMax =  -2.71908530816699E-04  1.45119912194196E-01
 cg2d: Sum(rhs),rhsMax =  -2.72090997526113E-04  1.45123977363422E-01
 cg2d: Sum(rhs),rhsMax =  -2.72272888267822E-04  1.45128025425843E-01
 cg2d: Sum(rhs),rhsMax =  -2.72454196493995E-04  1.45132056377094E-01
 cg2d: Sum(rhs),rhsMax =  -2.72634916714860E-04  1.45136070212849E-01
 cg2d: Sum(rhs),rhsMax =  -2.72815044759751E-04  1.45140066928820E-01
 cg2d: Sum(rhs),rhsMax =  -2.72994577745614E-04  1.45144046520757E-01
 cg2d: Sum(rhs),rhsMax =  -2.73173514690230E-04  1.45148008984449E-01
 cg2d: Sum(rhs),rhsMax =  -2.73351856045094E-04  1.45151954315722E-01
 cg2d: Sum(rhs),rhsMax =  -2.73529604569685E-04  1.45155882510442E-01
 cg2d: Sum(rhs),rhsMax =  -2.73706765264812E-04  1.45159793564513E-01
 cg2d: Sum(rhs),rhsMax =  -2.73920974658497E-04  1.45163687722076E-01
 cg2d: Sum(rhs),rhsMax =  -2.74134467224281E-04  1.45167564466873E-01
 cg2d: Sum(rhs),rhsMax =  -2.74347260310172E-04  1.45171424071905E-01
 cg2d: Sum(rhs),rhsMax =  -2.74559347928014E-04  1.45175266524832E-01
 cg2d: Sum(rhs),rhsMax =  -2.74770745760580E-04  1.45179091817783E-01
 cg2d: Sum(rhs),rhsMax =  -2.74981484467282E-04  1.45182899946004E-01
 cg2d: Sum(rhs),rhsMax =  -2.75191603802663E-04  1.45186690905257E-01
 cg2d: Sum(rhs),rhsMax =  -2.75401147326523E-04  1.45190464691484E-01
 cg2d: Sum(rhs),rhsMax =  -2.75610159288475E-04  1.45194221301056E-01
 cg2d: Sum(rhs),rhsMax =  -2.75818685161620E-04  1.45197960730608E-01
 cg2d: Sum(rhs),rhsMax =  -2.76026772328838E-04  1.45201682976833E-01
 cg2d: Sum(rhs),rhsMax =  -2.76234471564846E-04  1.45205388036354E-01
 cg2d: Sum(rhs),rhsMax =  -2.76441837557274E-04  1.45209075905705E-01
 cg2d: Sum(rhs),rhsMax =  -2.76648928145617E-04  1.45212746581361E-01
 cg2d: Sum(rhs),rhsMax =  -2.76855803392524E-04  1.45216400059776E-01
 cg2d: Sum(rhs),rhsMax =  -2.77062524769897E-04  1.45220036337404E-01
 cg2d: Sum(rhs),rhsMax =  -2.77269154342225E-04  1.45223655410727E-01
 cg2d: Sum(rhs),rhsMax =  -2.77475753808711E-04  1.45227257276271E-01
 cg2d: Sum(rhs),rhsMax =  -2.77682384452994E-04  1.45230841930620E-01
 cg2d: Sum(rhs),rhsMax =  -2.77889106239443E-04  1.45234409370430E-01
 cg2d: Sum(rhs),rhsMax =  -2.78095977551721E-04  1.45237959592424E-01
 cg2d: Sum(rhs),rhsMax =  -2.78303054647682E-04  1.45241492593386E-01
 cg2d: Sum(rhs),rhsMax =  -2.78510391213497E-04  1.45245008370139E-01
 cg2d: Sum(rhs),rhsMax =  -2.78718037852455E-04  1.45248506919543E-01
 cg2d: Sum(rhs),rhsMax =  -2.78926041722514E-04  1.45251988238480E-01
 cg2d: Sum(rhs),rhsMax =  -2.79134446262301E-04  1.45255452323855E-01
 cg2d: Sum(rhs),rhsMax =  -2.79343291028847E-04  1.45258899172606E-01
 cg2d: Sum(rhs),rhsMax =  -2.79552611559188E-04  1.45262328781700E-01
 cg2d: Sum(rhs),rhsMax =  -2.79762439308634E-04  1.45265741148148E-01
 cg2d: Sum(rhs),rhsMax =  -2.79972801701082E-04  1.45269136268999E-01
 cg2d: Sum(rhs),rhsMax =  -2.80183722222719E-04  1.45272514141349E-01
 cg2d: Sum(rhs),rhsMax =  -2.80395220392493E-04  1.45275874762336E-01
 cg2d: Sum(rhs),rhsMax =  -2.80607312169543E-04  1.45279218129141E-01
 cg2d: Sum(rhs),rhsMax =  -2.80820010075603E-04  1.45282544238980E-01
 cg2d: Sum(rhs),rhsMax =  -2.81033323243270E-04  1.45285853089111E-01
 cg2d: Sum(rhs),rhsMax =  -2.81247257800119E-04  1.45289144676826E-01
 cg2d: Sum(rhs),rhsMax =  -2.81461817334423E-04  1.45292418999457E-01
 cg2d: Sum(rhs),rhsMax =  -2.81677002581516E-04  1.45295676054372E-01
 cg2d: Sum(rhs),rhsMax =  -2.81892812326752E-04  1.45298915838975E-01
 cg2d: Sum(rhs),rhsMax =  -2.82109243057535E-04  1.45302138350714E-01
 cg2d: Sum(rhs),rhsMax =  -2.82286988142667E-04  1.45305343330696E-01
 cg2d: Sum(rhs),rhsMax =  -2.82465097065485E-04  1.45308531309523E-01
 cg2d: Sum(rhs),rhsMax =  -2.82643564179325E-04  1.45311701993667E-01
 cg2d: Sum(rhs),rhsMax =  -2.82822413047841E-04  1.45314855388791E-01
 cg2d: Sum(rhs),rhsMax =  -2.83001647159078E-04  1.45317991497957E-01
 cg2d: Sum(rhs),rhsMax =  -2.83181255951194E-04  1.45321110320114E-01
(PID.TID 0000.0001)      cg2d_init_res =   9.90516817639723E-04
(PID.TID 0000.0001)      cg2d_iters(min,last) =      -1      74
(PID.TID 0000.0001)      cg2d_last_res =   8.69650168548729E-08
(PID.TID 0000.0001) // =======================================================
(PID.TID 0000.0001) // Begin MONITOR dynamic field statistics
(PID.TID 0000.0001) // =======================================================
(PID.TID 0000.0001) %MON time_tsnumber                =                  9864
(PID.TID 0000.0001) %MON time_secondsf                =   1.1836800000000E+07
(PID.TID 0000.0001) %MON dynstat_eta_max              =   5.4497888553901E-02
(PID.TID 0000.0001) %MON dynstat_eta_min              =  -2.0795975609354E-02
(PID.TID 0000.0001) %MON dynstat_eta_mean             =   2.0589623115496E-07
(PID.TID 0000.0001) %MON dynstat_eta_sd               =   2.0106489297405E-02
(PID.TID 0000.0001) %MON dynstat_eta_del2             =   1.8186247918575E-05
(PID.TID 0000.0001) %MON dynstat_uvel_max             =   3.2900581205844E-02
(PID.TID 0000.0001) %MON dynstat_uvel_min             =  -1.6905960224231E-02
(PID.TID 0000.0001) %MON dynstat_uvel_mean            =   1.8115810724573E-08
(PID.TID 0000.0001) %MON dynstat_uvel_sd              =   7.1625431758631E-03
(PID.TID 0000.0001) %MON dynstat_uvel_del2            =   8.5154453461640E-06
(PID.TID 0000.0001) %MON dynstat_vvel_max             =   8.7719704126875E-02
(PID.TID 0000.0001) %MON dynstat_vvel_min             =  -3.0309903426469E-02
(PID.TID 0000.0001) %MON dynstat_vvel_mean            =   1.4955019707452E-08
(PID.TID 0000.0001) %MON dynstat_vvel_sd              =   1.5715372229497E-02
(PID.TID 0000.0001) %MON dynstat_vvel_del2            =   7.6593764153262E-05
(PID.TID 0000.0001) %MON dynstat_wvel_max             =   7.9278889101988E-09
(PID.TID 0000.0001) %MON dynstat_wvel_min             =  -1.3881120893057E-08
(PID.TID 0000.0001) %MON dynstat_wvel_mean            =  -3.7038037387699E-21
(PID.TID 0000.0001) %MON dynstat_wvel_sd              =   6.0662154996736E-09
(PID.TID 0000.0001) %MON dynstat_wvel_del2            =   2.1973333260087E-12
(PID.TID 0000.0001) %MON dynstat_theta_max            =   2.0000000000000E+01
(PID.TID 0000.0001) %MON dynstat_theta_min            =   2.0000000000000E+01
(PID.TID 0000.0001) %MON dynstat_theta_mean           =   2.0000000000000E+01
(PID.TID 0000.0001) %MON dynstat_theta_sd             =   0.0000000000000E+00
(PID.TID 0000.0001) %MON dynstat_theta_del2           =   0.0000000000000E+00
(PID.TID 0000.0001) %MON dynstat_salt_max             =   3.0000000000000E+01
(PID.TID 0000.0001) %MON dynstat_salt_min             =   3.0000000000000E+01
(PID.TID 0000.0001) %MON dynstat_salt_mean            =   3.0000000000000E+01
(PID.TID 0000.0001) %MON dynstat_salt_sd              =   0.0000000000000E+00
(PID.TID 0000.0001) %MON dynstat_salt_del2            =   0.0000000000000E+00
(PID.TID 0000.0001) %MON trAdv_CFL_u_max              =   1.9739921532761E-03
(PID.TID 0000.0001) %MON trAdv_CFL_v_max              =   5.2630161213400E-03
(PID.TID 0000.0001) %MON trAdv_CFL_w_max              =   1.9011718956695E-09
(PID.TID 0000.0001) %MON advcfl_uvel_max              =   1.9740348723506E-03
(PID.TID 0000.0001) %MON advcfl_vvel_max              =   5.2631822476125E-03
(PID.TID 0000.0001) %MON advcfl_wvel_max              =   6.6629380286671E-09
(PID.TID 0000.0001) %MON advcfl_W_hf_max              =   0.0000000000000E+00
(PID.TID 0000.0001) %MON pe_b_mean                    =   3.9658976458279E-07
(PID.TID 0000.0001) %MON ke_max                       =   3.8452415883493E-03
(PID.TID 0000.0001) %MON ke_mean                      =   1.4665184995366E-04
(PID.TID 0000.0001) %MON ke_vol                       =   7.2000000000000E+15
(PID.TID 0000.0001) %MON vort_r_min                   =  -1.4354840250768E-06
(PID.TID 0000.0001) %MON vort_r_max                   =   2.4309023881837E-06
(PID.TID 0000.0001) %MON vort_a_mean                  =   1.0600000000000E-04
(PID.TID 0000.0001) %MON vort_a_sd                    =   3.5381587400965E-06
(PID.TID 0000.0001) %MON vort_p_mean                  =   1.1130000000000E-04
(PID.TID 0000.0001) %MON vort_p_sd                    =   4.1150807380320E-05
(PID.TID 0000.0001) %MON surfExpan_theta_mean         =  -7.4067132674019E-20
(PID.TID 0000.0001) %MON surfExpan_salt_mean          =  -1.1110504121664E-19
(PID.TID 0000.0001) // =======================================================
(PID.TID 0000.0001) // End MONITOR dynamic field statistics
(PID.TID 0000.0001) // =======================================================
 cg2d: Sum(rhs),rhsMax =  -2.83361221829413E-04  1.45324211853243E-01
 cg2d: Sum(rhs),rhsMax =  -2.83541526358304E-04  1.45327296095066E-01
 cg2d: Sum(rhs),rhsMax =  -2.83722154622487E-04  1.45330363043201E-01
 cg2d: Sum(rhs),rhsMax =  -2.83903094553716E-04  1.45333412695316E-01
 cg2d: Sum(rhs),rhsMax =  -2.84084336044673E-04  1.45336445049195E-01
 cg2d: Sum(rhs),rhsMax =  -2.84265869026719E-04  1.45339460102722E-01
 cg2d: Sum(rhs),rhsMax =  -2.84447682750659E-04  1.45342457853826E-01
 cg2d: Sum(rhs),rhsMax =  -2.84629765749372E-04  1.45345438300451E-01
 cg2d: Sum(rhs),rhsMax =  -2.84812105897453E-04  1.45348401440556E-01
 cg2d: Sum(rhs),rhsMax =  -2.84994691436117E-04  1.45351347272147E-01
 cg2d: Sum(rhs),rhsMax =  -2.85177511015955E-04  1.45354275793297E-01
 cg2d: Sum(rhs),rhsMax =  -2.85360553780375E-04  1.45357187002161E-01
 cg2d: Sum(rhs),rhsMax =  -2.85543809039422E-04  1.45360080896962E-01
 cg2d: Sum(rhs),rhsMax =  -2.85727266814713E-04  1.45362957475971E-01
 cg2d: Sum(rhs),rhsMax =  -2.85910916959385E-04  1.45365816737484E-01
 cg2d: Sum(rhs),rhsMax =  -2.86094749821267E-04  1.45368658679818E-01
 cg2d: Sum(rhs),rhsMax =  -2.86278756068037E-04  1.45371483301303E-01
 cg2d: Sum(rhs),rhsMax =  -2.86462926413565E-04  1.45374290600296E-01
 cg2d: Sum(rhs),rhsMax =  -2.86647252071691E-04  1.45377080575186E-01
 cg2d: Sum(rhs),rhsMax =  -2.86831724518018E-04  1.45379853224404E-01
 cg2d: Sum(rhs),rhsMax =  -2.87016335542125E-04  1.45382608546430E-01
 cg2d: Sum(rhs),rhsMax =  -2.87201077366593E-04  1.45385346539787E-01
 cg2d: Sum(rhs),rhsMax =  -2.87385942466089E-04  1.45388067203046E-01
 cg2d: Sum(rhs),rhsMax =  -2.87570923527415E-04  1.45390770534818E-01
 cg2d: Sum(rhs),rhsMax =  -2.87756013702084E-04  1.45393456533754E-01
 cg2d: Sum(rhs),rhsMax =  -2.87941206298411E-04  1.45396125198540E-01
 cg2d: Sum(rhs),rhsMax =  -2.88126494922205E-04  1.45398776527900E-01
 cg2d: Sum(rhs),rhsMax =  -2.88311873743380E-04  1.45401410520591E-01
 cg2d: Sum(rhs),rhsMax =  -2.88497336797083E-04  1.45404027175408E-01
 cg2d: Sum(rhs),rhsMax =  -2.88682878757484E-04  1.45406626491185E-01
 cg2d: Sum(rhs),rhsMax =  -2.88868494383423E-04  1.45409208466793E-01
 cg2d: Sum(rhs),rhsMax =  -2.89054178781969E-04  1.45411773101144E-01
 cg2d: Sum(rhs),rhsMax =  -2.89239927329591E-04  1.45414320393186E-01
 cg2d: Sum(rhs),rhsMax =  -2.89425735621895E-04  1.45416850341913E-01
 cg2d: Sum(rhs),rhsMax =  -2.89611599574116E-04  1.45419362946351E-01
 cg2d: Sum(rhs),rhsMax =  -2.89797515244251E-04  1.45421858205570E-01
 cg2d: Sum(rhs),rhsMax =  -2.89983479160908E-04  1.45424336118677E-01
 cg2d: Sum(rhs),rhsMax =  -2.90169487852251E-04  1.45426796684814E-01
 cg2d: Sum(rhs),rhsMax =  -2.90355538342341E-04  1.45429239903167E-01
 cg2d: Sum(rhs),rhsMax =  -2.90541627549699E-04  1.45431665772955E-01
 cg2d: Sum(rhs),rhsMax =  -2.90727752915834E-04  1.45434074293438E-01
 cg2d: Sum(rhs),rhsMax =  -2.90913911991308E-04  1.45436465463915E-01
 cg2d: Sum(rhs),rhsMax =  -2.91100102619391E-04  1.45438839283721E-01
 cg2d: Sum(rhs),rhsMax =  -2.91286322748332E-04  1.45441195752232E-01
 cg2d: Sum(rhs),rhsMax =  -2.91472570617381E-04  1.45443534868862E-01
 cg2d: Sum(rhs),rhsMax =  -2.91658844668461E-04  1.45445856633065E-01
 cg2d: Sum(rhs),rhsMax =  -2.91845143378886E-04  1.45448161044331E-01
 cg2d: Sum(rhs),rhsMax =  -2.92031465854873E-04  1.45450448102190E-01
 cg2d: Sum(rhs),rhsMax =  -2.92217810889324E-04  1.45452717806212E-01
 cg2d: Sum(rhs),rhsMax =  -2.92404177842262E-04  1.45454970156002E-01
 cg2d: Sum(rhs),rhsMax =  -2.92590565994152E-04  1.45457205151206E-01
 cg2d: Sum(rhs),rhsMax =  -2.92776975015661E-04  1.45459422791508E-01
 cg2d: Sum(rhs),rhsMax =  -2.92963404650126E-04  1.45461623076631E-01
 cg2d: Sum(rhs),rhsMax =  -2.93149854687538E-04  1.45463806006336E-01
 cg2d: Sum(rhs),rhsMax =  -2.93336325406534E-04  1.45465971580421E-01
 cg2d: Sum(rhs),rhsMax =  -2.93522816969971E-04  1.45468119798726E-01
 cg2d: Sum(rhs),rhsMax =  -2.93709329880546E-04  1.45470250661127E-01
 cg2d: Sum(rhs),rhsMax =  -2.93895864607066E-04  1.45472364167540E-01
 cg2d: Sum(rhs),rhsMax =  -2.94082422051995E-04  1.45474460317918E-01
 cg2d: Sum(rhs),rhsMax =  -2.94269002789293E-04  1.45476539112253E-01
 cg2d: Sum(rhs),rhsMax =  -2.94455608067307E-04  1.45478600550577E-01
 cg2d: Sum(rhs),rhsMax =  -2.94642238944433E-04  1.45480644632959E-01
 cg2d: Sum(rhs),rhsMax =  -2.94828896930690E-04  1.45482671359507E-01
 cg2d: Sum(rhs),rhsMax =  -2.95015583223933E-04  1.45484680730367E-01
 cg2d: Sum(rhs),rhsMax =  -2.95202299400216E-04  1.45486672745725E-01
 cg2d: Sum(rhs),rhsMax =  -2.95389047075174E-04  1.45488647405803E-01
 cg2d: Sum(rhs),rhsMax =  -2.95575828100699E-04  1.45490604710864E-01
 cg2d: Sum(rhs),rhsMax =  -2.95762644477659E-04  1.45492544661209E-01
 cg2d: Sum(rhs),rhsMax =  -2.95949498111127E-04  1.45494467257176E-01
 cg2d: Sum(rhs),rhsMax =  -2.96136391139820E-04  1.45496372499143E-01
 cg2d: Sum(rhs),rhsMax =  -2.96323325844407E-04  1.45498260387527E-01
 cg2d: Sum(rhs),rhsMax =  -2.96510304546535E-04  1.45500130922781E-01
(PID.TID 0000.0001)      cg2d_init_res =   9.89103082137493E-04
(PID.TID 0000.0001)      cg2d_iters(min,last) =      -1      74
(PID.TID 0000.0001)      cg2d_last_res =   9.55789387740178E-08
(PID.TID 0000.0001) // =======================================================
(PID.TID 0000.0001) // Begin MONITOR dynamic field statistics
(PID.TID 0000.0001) // =======================================================
(PID.TID 0000.0001) %MON time_tsnumber                =                  9936
(PID.TID 0000.0001) %MON time_secondsf                =   1.1923200000000E+07
(PID.TID 0000.0001) %MON dynstat_eta_max              =   5.4998459490131E-02
(PID.TID 0000.0001) %MON dynstat_eta_min              =  -2.0334364194348E-02
(PID.TID 0000.0001) %MON dynstat_eta_mean             =   2.1585025069350E-07
(PID.TID 0000.0001) %MON dynstat_eta_sd               =   1.9923387117447E-02
(PID.TID 0000.0001) %MON dynstat_eta_del2             =   1.8219303005148E-05
(PID.TID 0000.0001) %MON dynstat_uvel_max             =   3.2943418964437E-02
(PID.TID 0000.0001) %MON dynstat_uvel_min             =  -1.6811785592493E-02
(PID.TID 0000.0001) %MON dynstat_uvel_mean            =   4.9097513503910E-08
(PID.TID 0000.0001) %MON dynstat_uvel_sd              =   7.0576414383519E-03
(PID.TID 0000.0001) %MON dynstat_uvel_del2            =   8.4738121308867E-06
(PID.TID 0000.0001) %MON dynstat_vvel_max             =   8.7891751370700E-02
(PID.TID 0000.0001) %MON dynstat_vvel_min             =  -3.0512497737618E-02
(PID.TID 0000.0001) %MON dynstat_vvel_mean            =   1.4792836083430E-08
(PID.TID 0000.0001) %MON dynstat_vvel_sd              =   1.5712665253173E-02
(PID.TID 0000.0001) %MON dynstat_vvel_del2            =   7.6703767697379E-05
(PID.TID 0000.0001) %MON dynstat_wvel_max             =   8.3751532028691E-09
(PID.TID 0000.0001) %MON dynstat_wvel_min             =  -1.3289634627872E-08
(PID.TID 0000.0001) %MON dynstat_wvel_mean            =  -3.7252746349421E-21
(PID.TID 0000.0001) %MON dynstat_wvel_sd              =   6.0552156263798E-09
(PID.TID 0000.0001) %MON dynstat_wvel_del2            =   2.1719466733790E-12
(PID.TID 0000.0001) %MON dynstat_theta_max            =   2.0000000000000E+01
(PID.TID 0000.0001) %MON dynstat_theta_min            =   2.0000000000000E+01
(PID.TID 0000.0001) %MON dynstat_theta_mean           =   2.0000000000000E+01
(PID.TID 0000.0001) %MON dynstat_theta_sd             =   0.0000000000000E+00
(PID.TID 0000.0001) %MON dynstat_theta_del2           =   0.0000000000000E+00
(PID.TID 0000.0001) %MON dynstat_salt_max             =   3.0000000000000E+01
(PID.TID 0000.0001) %MON dynstat_salt_min             =   3.0000000000000E+01
(PID.TID 0000.0001) %MON dynstat_salt_mean            =   3.0000000000000E+01
(PID.TID 0000.0001) %MON dynstat_salt_sd              =   0.0000000000000E+00
(PID.TID 0000.0001) %MON dynstat_salt_del2            =   0.0000000000000E+00
(PID.TID 0000.0001) %MON trAdv_CFL_u_max              =   1.9765763260439E-03
(PID.TID 0000.0001) %MON trAdv_CFL_v_max              =   5.2733839629329E-03
(PID.TID 0000.0001) %MON trAdv_CFL_w_max              =   2.0082854316977E-09
(PID.TID 0000.0001) %MON advcfl_uvel_max              =   1.9766051378662E-03
(PID.TID 0000.0001) %MON advcfl_vvel_max              =   5.2735050822420E-03
(PID.TID 0000.0001) %MON advcfl_wvel_max              =   6.3790246213786E-09
(PID.TID 0000.0001) %MON advcfl_W_hf_max              =   0.0000000000000E+00
(PID.TID 0000.0001) %MON pe_b_mean                    =   3.8939946854697E-07
(PID.TID 0000.0001) %MON ke_max                       =   3.8595015465366E-03
(PID.TID 0000.0001) %MON ke_mean                      =   1.4587659141635E-04
(PID.TID 0000.0001) %MON ke_vol                       =   7.2000000000000E+15
(PID.TID 0000.0001) %MON vort_r_min                   =  -1.4422016502761E-06
(PID.TID 0000.0001) %MON vort_r_max                   =   2.4320601216721E-06
(PID.TID 0000.0001) %MON vort_a_mean                  =   1.0600000000000E-04
(PID.TID 0000.0001) %MON vort_a_sd                    =   3.5381799406140E-06
(PID.TID 0000.0001) %MON vort_p_mean                  =   1.1130000000000E-04
(PID.TID 0000.0001) %MON vort_p_sd                    =   4.1150624906718E-05
(PID.TID 0000.0001) %MON surfExpan_theta_mean         =  -7.4494247807403E-20
(PID.TID 0000.0001) %MON surfExpan_salt_mean          =  -1.1173734530227E-19
(PID.TID 0000.0001) // =======================================================
(PID.TID 0000.0001) // End MONITOR dynamic field statistics
(PID.TID 0000.0001) // =======================================================
 cg2d: Sum(rhs),rhsMax =  -2.96697329615349E-04  1.45501984105399E-01
 cg2d: Sum(rhs),rhsMax =  -2.96884403563551E-04  1.45503819935913E-01
 cg2d: Sum(rhs),rhsMax =  -2.97071529077817E-04  1.45505638414892E-01
 cg2d: Sum(rhs),rhsMax =  -2.97258708636640E-04  1.45507439542946E-01
 cg2d: Sum(rhs),rhsMax =  -2.97445945221831E-04  1.45509223320721E-01
 cg2d: Sum(rhs),rhsMax =  -2.97633241619072E-04  1.45510989748903E-01
 cg2d: Sum(rhs),rhsMax =  -2.97820600704013E-04  1.45512738828215E-01
 cg2d: Sum(rhs),rhsMax =  -2.98008025516456E-04  1.45514470559421E-01
 cg2d: Sum(rhs),rhsMax =  -2.98195519099339E-04  1.45516184943322E-01
 cg2d: Sum(rhs),rhsMax =  -2.98383084558130E-04  1.45517881980756E-01
 cg2d: Sum(rhs),rhsMax =  -2.98570725074648E-04  1.45519561672603E-01
 cg2d: Sum(rhs),rhsMax =  -2.98758443849211E-04  1.45521224019777E-01
 cg2d: Sum(rhs),rhsMax =  -2.98946244201889E-04  1.45522869023235E-01
 cg2d: Sum(rhs),rhsMax =  -2.99134129521554E-04  1.45524496683969E-01
 cg2d: Sum(rhs),rhsMax =  -2.99322103268307E-04  1.45526107003012E-01
 cg2d: Sum(rhs),rhsMax =  -2.99510168643393E-04  1.45527699981432E-01
 cg2d: Sum(rhs),rhsMax =  -2.99698329347063E-04  1.45529275620339E-01
 cg2d: Sum(rhs),rhsMax =  -2.99886588775419E-04  1.45530833920881E-01
 cg2d: Sum(rhs),rhsMax =  -3.00074950629920E-04  1.45532374884242E-01
 cg2d: Sum(rhs),rhsMax =  -3.00263418310546E-04  1.45533898511646E-01
 cg2d: Sum(rhs),rhsMax =  -3.00451995675693E-04  1.45535404804356E-01
 cg2d: Sum(rhs),rhsMax =  -3.00640686243366E-04  1.45536893763673E-01
 cg2d: Sum(rhs),rhsMax =  -3.00829493637298E-04  1.45538365390935E-01
 cg2d: Sum(rhs),rhsMax =  -3.01018421739249E-04  1.45539819687520E-01
 cg2d: Sum(rhs),rhsMax =  -3.01207474224681E-04  1.45541256654845E-01
 cg2d: Sum(rhs),rhsMax =  -3.01396654823236E-04  1.45542676294362E-01
 cg2d: Sum(rhs),rhsMax =  -3.01585967409784E-04  1.45544078607566E-01
 cg2d: Sum(rhs),rhsMax =  -3.01775415617393E-04  1.45545463595987E-01
 cg2d: Sum(rhs),rhsMax =  -3.01965003410087E-04  1.45546831261195E-01
 cg2d: Sum(rhs),rhsMax =  -3.02154734540175E-04  1.45548181604797E-01
 cg2d: Sum(rhs),rhsMax =  -3.02344612915734E-04  1.45549514628439E-01
 cg2d: Sum(rhs),rhsMax =  -3.02534642342320E-04  1.45550830333807E-01
 cg2d: Sum(rhs),rhsMax =  -3.02724826711516E-04  1.45552128722623E-01
 cg2d: Sum(rhs),rhsMax =  -3.02915169835805E-04  1.45553409796649E-01
 cg2d: Sum(rhs),rhsMax =  -3.03105675565288E-04  1.45554673557682E-01
 cg2d: Sum(rhs),rhsMax =  -3.03296347984519E-04  1.45555920007562E-01
 cg2d: Sum(rhs),rhsMax =  -3.03487190779241E-04  1.45557149148166E-01
 cg2d: Sum(rhs),rhsMax =  -3.03678207832805E-04  1.45558360981407E-01
 cg2d: Sum(rhs),rhsMax =  -3.03869403069645E-04  1.45559555509237E-01
 cg2d: Sum(rhs),rhsMax =  -3.04060780426997E-04  1.45560732733649E-01
 cg2d: Sum(rhs),rhsMax =  -3.04252343723626E-04  1.45561892656671E-01
 cg2d: Sum(rhs),rhsMax =  -3.04444096881450E-04  1.45563035280373E-01
 cg2d: Sum(rhs),rhsMax =  -3.04636043728346E-04  1.45564160606857E-01
 cg2d: Sum(rhs),rhsMax =  -3.04828188153408E-04  1.45565268638271E-01
 cg2d: Sum(rhs),rhsMax =  -3.05020533954758E-04  1.45566359376795E-01
 cg2d: Sum(rhs),rhsMax =  -3.05213085084679E-04  1.45567432824650E-01
 cg2d: Sum(rhs),rhsMax =  -3.05405845307123E-04  1.45568488984097E-01
 cg2d: Sum(rhs),rhsMax =  -3.05598818531065E-04  1.45569527857430E-01
 cg2d: Sum(rhs),rhsMax =  -3.05792008490360E-04  1.45570549446987E-01
 cg2d: Sum(rhs),rhsMax =  -3.05985419023212E-04  1.45571553755140E-01
 cg2d: Sum(rhs),rhsMax =  -3.06179053949060E-04  1.45572540784302E-01
 cg2d: Sum(rhs),rhsMax =  -3.06372917064843E-04  1.45573510536923E-01
 cg2d: Sum(rhs),rhsMax =  -3.06567012228829E-04  1.45574463015490E-01
 cg2d: Sum(rhs),rhsMax =  -3.06761343085563E-04  1.45575398222531E-01
 cg2d: Sum(rhs),rhsMax =  -3.06955913387399E-04  1.45576316160609E-01
 cg2d: Sum(rhs),rhsMax =  -3.07150726874299E-04  1.45577216832328E-01
 cg2d: Sum(rhs),rhsMax =  -3.07345787303592E-04  1.45578100240328E-01
 cg2d: Sum(rhs),rhsMax =  -3.07541098343918E-04  1.45578966387288E-01
 cg2d: Sum(rhs),rhsMax =  -3.07736663707444E-04  1.45579815275926E-01
 cg2d: Sum(rhs),rhsMax =  -3.07932487041877E-04  1.45580646908998E-01
 cg2d: Sum(rhs),rhsMax =  -3.08128571888446E-04  1.45581461289295E-01
 cg2d: Sum(rhs),rhsMax =  -3.08324922045146E-04  1.45582258419651E-01
 cg2d: Sum(rhs),rhsMax =  -3.08521541102659E-04  1.45583038302934E-01
 cg2d: Sum(rhs),rhsMax =  -3.08718432593193E-04  1.45583800942052E-01
 cg2d: Sum(rhs),rhsMax =  -3.08915600084893E-04  1.45584546339952E-01
 cg2d: Sum(rhs),rhsMax =  -3.09113047168558E-04  1.45585274499616E-01
 cg2d: Sum(rhs),rhsMax =  -3.09310777385454E-04  1.45585985424068E-01
 cg2d: Sum(rhs),rhsMax =  -3.09508794222248E-04  1.45586679116366E-01
 cg2d: Sum(rhs),rhsMax =  -3.09707101236436E-04  1.45587355579610E-01
 cg2d: Sum(rhs),rhsMax =  -3.09905701720019E-04  1.45588014816934E-01
 cg2d: Sum(rhs),rhsMax =  -3.10104599163768E-04  1.45588656831514E-01
 cg2d: Sum(rhs),rhsMax =  -3.10303797104831E-04  1.45589281626560E-01
(PID.TID 0000.0001)      cg2d_init_res =   9.89264286298942E-04
(PID.TID 0000.0001)      cg2d_iters(min,last) =      -1      74
(PID.TID 0000.0001)      cg2d_last_res =   9.93529823514630E-08
(PID.TID 0000.0001) // =======================================================
(PID.TID 0000.0001) // Begin MONITOR dynamic field statistics
(PID.TID 0000.0001) // =======================================================
(PID.TID 0000.0001) %MON time_tsnumber                =                 10008
(PID.TID 0000.0001) %MON time_secondsf                =   1.2009600000000E+07
(PID.TID 0000.0001) %MON dynstat_eta_max              =   5.5416994769914E-02
(PID.TID 0000.0001) %MON dynstat_eta_min              =  -1.9889177087029E-02
(PID.TID 0000.0001) %MON dynstat_eta_mean             =   2.2603070447222E-07
(PID.TID 0000.0001) %MON dynstat_eta_sd               =   1.9711199238301E-02
(PID.TID 0000.0001) %MON dynstat_eta_del2             =   1.8249663532268E-05
(PID.TID 0000.0001) %MON dynstat_uvel_max             =   3.2969385612080E-02
(PID.TID 0000.0001) %MON dynstat_uvel_min             =  -1.6703744486923E-02
(PID.TID 0000.0001) %MON dynstat_uvel_mean            =   7.9378024079644E-08
(PID.TID 0000.0001) %MON dynstat_uvel_sd              =   6.9492134314465E-03
(PID.TID 0000.0001) %MON dynstat_uvel_del2            =   8.4322588099372E-06
(PID.TID 0000.0001) %MON dynstat_vvel_max             =   8.8009440847006E-02
(PID.TID 0000.0001) %MON dynstat_vvel_min             =  -3.0730063333102E-02
(PID.TID 0000.0001) %MON dynstat_vvel_mean            =   1.4462335242843E-08
(PID.TID 0000.0001) %MON dynstat_vvel_sd              =   1.5701195262118E-02
(PID.TID 0000.0001) %MON dynstat_vvel_del2            =   7.6788448583890E-05
(PID.TID 0000.0001) %MON dynstat_wvel_max             =   8.8502238674846E-09
(PID.TID 0000.0001) %MON dynstat_wvel_min             =  -1.2615216663689E-08
(PID.TID 0000.0001) %MON dynstat_wvel_mean            =   6.7847218411367E-22
(PID.TID 0000.0001) %MON dynstat_wvel_sd              =   6.0447841378752E-09
(PID.TID 0000.0001) %MON dynstat_wvel_del2            =   2.1472382532636E-12
(PID.TID 0000.0001) %MON dynstat_theta_max            =   2.0000000000000E+01
(PID.TID 0000.0001) %MON dynstat_theta_min            =   2.0000000000000E+01
(PID.TID 0000.0001) %MON dynstat_theta_mean           =   2.0000000000000E+01
(PID.TID 0000.0001) %MON dynstat_theta_sd             =   0.0000000000000E+00
(PID.TID 0000.0001) %MON dynstat_theta_del2           =   0.0000000000000E+00
(PID.TID 0000.0001) %MON dynstat_salt_max             =   3.0000000000000E+01
(PID.TID 0000.0001) %MON dynstat_salt_min             =   3.0000000000000E+01
(PID.TID 0000.0001) %MON dynstat_salt_mean            =   3.0000000000000E+01
(PID.TID 0000.0001) %MON dynstat_salt_sd              =   0.0000000000000E+00
(PID.TID 0000.0001) %MON dynstat_salt_del2            =   0.0000000000000E+00
(PID.TID 0000.0001) %MON trAdv_CFL_u_max              =   1.9781485067507E-03
(PID.TID 0000.0001) %MON trAdv_CFL_v_max              =   5.2804908269380E-03
(PID.TID 0000.0001) %MON trAdv_CFL_w_max              =   2.1226357965090E-09
(PID.TID 0000.0001) %MON advcfl_uvel_max              =   1.9781631367248E-03
(PID.TID 0000.0001) %MON advcfl_vvel_max              =   5.2805664508203E-03
(PID.TID 0000.0001) %MON advcfl_wvel_max              =   6.0553039985709E-09
(PID.TID 0000.0001) %MON advcfl_W_hf_max              =   0.0000000000000E+00
(PID.TID 0000.0001) %MON pe_b_mean                    =   3.8114927932930E-07
(PID.TID 0000.0001) %MON ke_max                       =   3.8689421552798E-03
(PID.TID 0000.0001) %MON ke_mean                      =   1.4495272415754E-04
(PID.TID 0000.0001) %MON ke_vol                       =   7.2000000000000E+15
(PID.TID 0000.0001) %MON vort_r_min                   =  -1.4487845226366E-06
(PID.TID 0000.0001) %MON vort_r_max                   =   2.4316339598043E-06
(PID.TID 0000.0001) %MON vort_a_mean                  =   1.0600000000000E-04
(PID.TID 0000.0001) %MON vort_a_sd                    =   3.5381868791133E-06
(PID.TID 0000.0001) %MON vort_p_mean                  =   1.1130000000000E-04
(PID.TID 0000.0001) %MON vort_p_sd                    =   4.1150446585579E-05
(PID.TID 0000.0001) %MON surfExpan_theta_mean         =   1.3584787615804E-20
(PID.TID 0000.0001) %MON surfExpan_salt_mean          =   2.0365260095585E-20
(PID.TID 0000.0001) // =======================================================
(PID.TID 0000.0001) // End MONITOR dynamic field statistics
(PID.TID 0000.0001) // =======================================================
 cg2d: Sum(rhs),rhsMax =  -3.10503298921560E-04  1.45589889205325E-01
 cg2d: Sum(rhs),rhsMax =  -3.10703108068771E-04  1.45590479571094E-01
 cg2d: Sum(rhs),rhsMax =  -3.10903227755587E-04  1.45591052727196E-01
 cg2d: Sum(rhs),rhsMax =  -3.11103661382602E-04  1.45591608676992E-01
 cg2d: Sum(rhs),rhsMax =  -3.11304412238514E-04  1.45592147423887E-01
 cg2d: Sum(rhs),rhsMax =  -3.11505483683933E-04  1.45592668971318E-01
 cg2d: Sum(rhs),rhsMax =  -3.11706878921974E-04  1.45593173322765E-01
 cg2d: Sum(rhs),rhsMax =  -3.11908601300858E-04  1.45593660481743E-01
 cg2d: Sum(rhs),rhsMax =  -3.12110653923756E-04  1.45594130451806E-01
 cg2d: Sum(rhs),rhsMax =  -3.12313040063736E-04  1.45594583236545E-01
 cg2d: Sum(rhs),rhsMax =  -3.12515762853556E-04  1.45595018839590E-01
 cg2d: Sum(rhs),rhsMax =  -3.12718825537425E-04  1.45595437264609E-01
 cg2d: Sum(rhs),rhsMax =  -3.12922231100692E-04  1.45595838515306E-01
 cg2d: Sum(rhs),rhsMax =  -3.13086242583216E-04  1.45596222802271E-01
 cg2d: Sum(rhs),rhsMax =  -3.13250517322868E-04  1.45596589721931E-01
 cg2d: Sum(rhs),rhsMax =  -3.13415102874725E-04  1.45596939476020E-01
 cg2d: Sum(rhs),rhsMax =  -3.13580010512635E-04  1.45597272067506E-01
 cg2d: Sum(rhs),rhsMax =  -3.13745252423348E-04  1.45597587503515E-01
 cg2d: Sum(rhs),rhsMax =  -3.13910830948750E-04  1.45597885789447E-01
 cg2d: Sum(rhs),rhsMax =  -3.14076743839562E-04  1.45598166929291E-01
 cg2d: Sum(rhs),rhsMax =  -3.14242988251924E-04  1.45598430926320E-01
 cg2d: Sum(rhs),rhsMax =  -3.14409563767076E-04  1.45598677784028E-01
 cg2d: Sum(rhs),rhsMax =  -3.14576472016717E-04  1.45598907506291E-01
 cg2d: Sum(rhs),rhsMax =  -3.14743716290213E-04  1.45599120097276E-01
 cg2d: Sum(rhs),rhsMax =  -3.14911299711119E-04  1.45599315561281E-01
 cg2d: Sum(rhs),rhsMax =  -3.15079224961321E-04  1.45599493902624E-01
 cg2d: Sum(rhs),rhsMax =  -3.15247494080927E-04  1.45599655125594E-01
 cg2d: Sum(rhs),rhsMax =  -3.15416108862769E-04  1.45599799234451E-01
 cg2d: Sum(rhs),rhsMax =  -3.15585070782852E-04  1.45599926233459E-01
 cg2d: Sum(rhs),rhsMax =  -3.15754381566533E-04  1.45600036126917E-01
 cg2d: Sum(rhs),rhsMax =  -3.15924043148320E-04  1.45600128919181E-01
 cg2d: Sum(rhs),rhsMax =  -3.16094057356386E-04  1.45600204614667E-01
 cg2d: Sum(rhs),rhsMax =  -3.16264426113965E-04  1.45600263217847E-01
 cg2d: Sum(rhs),rhsMax =  -3.16435151327862E-04  1.45600304733237E-01
 cg2d: Sum(rhs),rhsMax =  -3.16606234775287E-04  1.45600329165389E-01
 cg2d: Sum(rhs),rhsMax =  -3.16777678226693E-04  1.45600336518883E-01
 cg2d: Sum(rhs),rhsMax =  -3.16949483371486E-04  1.45600326798331E-01
 cg2d: Sum(rhs),rhsMax =  -3.17121652121472E-04  1.45600300008377E-01
 cg2d: Sum(rhs),rhsMax =  -3.17294185987639E-04  1.45600256153701E-01
 cg2d: Sum(rhs),rhsMax =  -3.17467086744745E-04  1.45600195239021E-01
 cg2d: Sum(rhs),rhsMax =  -3.17640356102923E-04  1.45600117269094E-01
 cg2d: Sum(rhs),rhsMax =  -3.17813995611836E-04  1.45600022248716E-01
 cg2d: Sum(rhs),rhsMax =  -3.17988007137885E-04  1.45599910182725E-01
 cg2d: Sum(rhs),rhsMax =  -3.18162392203946E-04  1.45599781075993E-01
 cg2d: Sum(rhs),rhsMax =  -3.18337152340243E-04  1.45599634933433E-01
 cg2d: Sum(rhs),rhsMax =  -3.18512289156373E-04  1.45599471759994E-01
 cg2d: Sum(rhs),rhsMax =  -3.18687804416622E-04  1.45599291560662E-01
 cg2d: Sum(rhs),rhsMax =  -3.18863699448820E-04  1.45599094340460E-01
 cg2d: Sum(rhs),rhsMax =  -3.19039975902366E-04  1.45598880104447E-01
 cg2d: Sum(rhs),rhsMax =  -3.19216635235328E-04  1.45598648857720E-01
 cg2d: Sum(rhs),rhsMax =  -3.19393678915280E-04  1.45598400605413E-01
 cg2d: Sum(rhs),rhsMax =  -3.19571108543262E-04  1.45598135352699E-01
 cg2d: Sum(rhs),rhsMax =  -3.19748925530221E-04  1.45597853104785E-01
 cg2d: Sum(rhs),rhsMax =  -3.19927131338232E-04  1.45597553866919E-01
 cg2d: Sum(rhs),rhsMax =  -3.20105727399152E-04  1.45597237644384E-01
 cg2d: Sum(rhs),rhsMax =  -3.20284715064532E-04  1.45596904442503E-01
 cg2d: Sum(rhs),rhsMax =  -3.20464095764251E-04  1.45596554266632E-01
 cg2d: Sum(rhs),rhsMax =  -3.20643870956103E-04  1.45596187122170E-01
 cg2d: Sum(rhs),rhsMax =  -3.20824041996080E-04  1.45595803014548E-01
 cg2d: Sum(rhs),rhsMax =  -3.21004610125310E-04  1.45595401949238E-01
 cg2d: Sum(rhs),rhsMax =  -3.21185576766080E-04  1.45594983931745E-01
 cg2d: Sum(rhs),rhsMax =  -3.21366943144703E-04  1.45594548967615E-01
 cg2d: Sum(rhs),rhsMax =  -3.21548710719406E-04  1.45594097062429E-01
 cg2d: Sum(rhs),rhsMax =  -3.21730880575587E-04  1.45593628221807E-01
 cg2d: Sum(rhs),rhsMax =  -3.21913454080077E-04  1.45593142451403E-01
 cg2d: Sum(rhs),rhsMax =  -3.22096432539014E-04  1.45592639756912E-01
 cg2d: Sum(rhs),rhsMax =  -3.22279817110460E-04  1.45592120144064E-01
 cg2d: Sum(rhs),rhsMax =  -3.22463608975602E-04  1.45591583618626E-01
 cg2d: Sum(rhs),rhsMax =  -3.22647809455831E-04  1.45591030186402E-01
 cg2d: Sum(rhs),rhsMax =  -3.22832419701126E-04  1.45590459853235E-01
 cg2d: Sum(rhs),rhsMax =  -3.23017440805277E-04  1.45589872625002E-01
 cg2d: Sum(rhs),rhsMax =  -3.23202873967181E-04  1.45589268507619E-01
(PID.TID 0000.0001)      cg2d_init_res =   9.90763872476895E-04
(PID.TID 0000.0001)      cg2d_iters(min,last) =      -1      75
(PID.TID 0000.0001)      cg2d_last_res =   8.59449721405753E-08
(PID.TID 0000.0001) // =======================================================
(PID.TID 0000.0001) // Begin MONITOR dynamic field statistics
(PID.TID 0000.0001) // =======================================================
(PID.TID 0000.0001) %MON time_tsnumber                =                 10080
(PID.TID 0000.0001) %MON time_secondsf                =   1.2096000000000E+07
(PID.TID 0000.0001) %MON dynstat_eta_max              =   5.5749528171255E-02
(PID.TID 0000.0001) %MON dynstat_eta_min              =  -1.9395884389006E-02
(PID.TID 0000.0001) %MON dynstat_eta_mean             =   2.3540863213478E-07
(PID.TID 0000.0001) %MON dynstat_eta_sd               =   1.9471612649173E-02
(PID.TID 0000.0001) %MON dynstat_eta_del2             =   1.8276912135274E-05
(PID.TID 0000.0001) %MON dynstat_uvel_max             =   3.2978245617292E-02
(PID.TID 0000.0001) %MON dynstat_uvel_min             =  -1.6582571093462E-02
(PID.TID 0000.0001) %MON dynstat_uvel_mean            =   1.0858908631150E-07
(PID.TID 0000.0001) %MON dynstat_uvel_sd              =   6.8382367264520E-03
(PID.TID 0000.0001) %MON dynstat_uvel_del2            =   8.3908060097635E-06
(PID.TID 0000.0001) %MON dynstat_vvel_max             =   8.8072504594668E-02
(PID.TID 0000.0001) %MON dynstat_vvel_min             =  -3.0959701838206E-02
(PID.TID 0000.0001) %MON dynstat_vvel_mean            =   1.3972769108423E-08
(PID.TID 0000.0001) %MON dynstat_vvel_sd              =   1.5681025165835E-02
(PID.TID 0000.0001) %MON dynstat_vvel_del2            =   7.6846861125033E-05
(PID.TID 0000.0001) %MON dynstat_wvel_max             =   9.3039802501880E-09
(PID.TID 0000.0001) %MON dynstat_wvel_min             =  -1.3043401395553E-08
(PID.TID 0000.0001) %MON dynstat_wvel_mean            =   4.0766129435118E-22
(PID.TID 0000.0001) %MON dynstat_wvel_sd              =   6.0342848426898E-09
(PID.TID 0000.0001) %MON dynstat_wvel_del2            =   2.1191104048536E-12
(PID.TID 0000.0001) %MON dynstat_theta_max            =   2.0000000000000E+01
(PID.TID 0000.0001) %MON dynstat_theta_min            =   2.0000000000000E+01
(PID.TID 0000.0001) %MON dynstat_theta_mean           =   2.0000000000000E+01
(PID.TID 0000.0001) %MON dynstat_theta_sd             =   0.0000000000000E+00
(PID.TID 0000.0001) %MON dynstat_theta_del2           =   0.0000000000000E+00
(PID.TID 0000.0001) %MON dynstat_salt_max             =   3.0000000000000E+01
(PID.TID 0000.0001) %MON dynstat_salt_min             =   3.0000000000000E+01
(PID.TID 0000.0001) %MON dynstat_salt_mean            =   3.0000000000000E+01
(PID.TID 0000.0001) %MON dynstat_salt_sd              =   0.0000000000000E+00
(PID.TID 0000.0001) %MON dynstat_salt_del2            =   0.0000000000000E+00
(PID.TID 0000.0001) %MON trAdv_CFL_u_max              =   1.9786944085914E-03
(PID.TID 0000.0001) %MON trAdv_CFL_v_max              =   5.2843201126851E-03
(PID.TID 0000.0001) %MON trAdv_CFL_w_max              =   2.2313350471202E-09
(PID.TID 0000.0001) %MON advcfl_uvel_max              =   1.9786947370375E-03
(PID.TID 0000.0001) %MON advcfl_vvel_max              =   5.2843502756801E-03
(PID.TID 0000.0001) %MON advcfl_wvel_max              =   6.2608326698653E-09
(PID.TID 0000.0001) %MON advcfl_W_hf_max              =   0.0000000000000E+00
(PID.TID 0000.0001) %MON pe_b_mean                    =   3.7193996892977E-07
(PID.TID 0000.0001) %MON ke_max                       =   3.8735278841038E-03
(PID.TID 0000.0001) %MON ke_mean                      =   1.4388921563034E-04
(PID.TID 0000.0001) %MON ke_vol                       =   7.2000000000000E+15
(PID.TID 0000.0001) %MON vort_r_min                   =  -1.4551810547827E-06
(PID.TID 0000.0001) %MON vort_r_max                   =   2.4296568849570E-06
(PID.TID 0000.0001) %MON vort_a_mean                  =   1.0600000000000E-04
(PID.TID 0000.0001) %MON vort_a_sd                    =   3.5381794035656E-06
(PID.TID 0000.0001) %MON vort_p_mean                  =   1.1130000000000E-04
(PID.TID 0000.0001) %MON vort_p_sd                    =   4.1150274248557E-05
(PID.TID 0000.0001) %MON surfExpan_theta_mean         =   8.1292799652349E-21
(PID.TID 0000.0001) %MON surfExpan_salt_mean          =   1.2196446322024E-20
(PID.TID 0000.0001) // =======================================================
(PID.TID 0000.0001) // End MONITOR dynamic field statistics
(PID.TID 0000.0001) // =======================================================
 cg2d: Sum(rhs),rhsMax =  -3.23388720426094E-04  1.45588647507038E-01
 cg2d: Sum(rhs),rhsMax =  -3.23574981232407E-04  1.45588009629250E-01
 cg2d: Sum(rhs),rhsMax =  -3.23761657417112E-04  1.45587354880281E-01
 cg2d: Sum(rhs),rhsMax =  -3.23948750256109E-04  1.45586683266194E-01
 cg2d: Sum(rhs),rhsMax =  -3.24136260614452E-04  1.45585994793089E-01
 cg2d: Sum(rhs),rhsMax =  -3.24324189727893E-04  1.45585289467105E-01
 cg2d: Sum(rhs),rhsMax =  -3.24512538595974E-04  1.45584567294414E-01
 cg2d: Sum(rhs),rhsMax =  -3.24701308235213E-04  1.45583828281229E-01
 cg2d: Sum(rhs),rhsMax =  -3.24890499651069E-04  1.45583072433797E-01
 cg2d: Sum(rhs),rhsMax =  -3.25080113957576E-04  1.45582299758403E-01
 cg2d: Sum(rhs),rhsMax =  -3.25270152084315E-04  1.45581510261369E-01
 cg2d: Sum(rhs),rhsMax =  -3.25460614922585E-04  1.45580703949052E-01
 cg2d: Sum(rhs),rhsMax =  -3.25651503637729E-04  1.45579880827850E-01
 cg2d: Sum(rhs),rhsMax =  -3.25842818973607E-04  1.45579040904193E-01
 cg2d: Sum(rhs),rhsMax =  -3.26034562046613E-04  1.45578184184551E-01
 cg2d: Sum(rhs),rhsMax =  -3.26226733711625E-04  1.45577310675429E-01
 cg2d: Sum(rhs),rhsMax =  -3.26419334922752E-04  1.45576420383369E-01
 cg2d: Sum(rhs),rhsMax =  -3.26612366503244E-04  1.45575513314950E-01
 cg2d: Sum(rhs),rhsMax =  -3.26805829362921E-04  1.45574589476788E-01
 cg2d: Sum(rhs),rhsMax =  -3.26999724387968E-04  1.45573648875535E-01
 cg2d: Sum(rhs),rhsMax =  -3.27194052407439E-04  1.45572691517880E-01
 cg2d: Sum(rhs),rhsMax =  -3.27388814285572E-04  1.45571717410549E-01
 cg2d: Sum(rhs),rhsMax =  -3.27584010896382E-04  1.45570726560305E-01
 cg2d: Sum(rhs),rhsMax =  -3.27779643049028E-04  1.45569718973944E-01
 cg2d: Sum(rhs),rhsMax =  -3.27975711560623E-04  1.45568694658305E-01
 cg2d: Sum(rhs),rhsMax =  -3.28172217194679E-04  1.45567653620257E-01
 cg2d: Sum(rhs),rhsMax =  -3.28369160752970E-04  1.45566595866711E-01
 cg2d: Sum(rhs),rhsMax =  -3.28566543047655E-04  1.45565521404610E-01
 cg2d: Sum(rhs),rhsMax =  -3.28764364747641E-04  1.45564430240936E-01
 cg2d: Sum(rhs),rhsMax =  -3.28962626702163E-04  1.45563322382707E-01
 cg2d: Sum(rhs),rhsMax =  -3.29161329570329E-04  1.45562197836979E-01
 cg2d: Sum(rhs),rhsMax =  -3.29360474061211E-04  1.45561056610841E-01
 cg2d: Sum(rhs),rhsMax =  -3.29560060965046E-04  1.45559898711419E-01
 cg2d: Sum(rhs),rhsMax =  -3.29760090864940E-04  1.45558724145881E-01
 cg2d: Sum(rhs),rhsMax =  -3.29960564643529E-04  1.45557532921423E-01
 cg2d: Sum(rhs),rhsMax =  -3.30161482863596E-04  1.45556325045284E-01
 cg2d: Sum(rhs),rhsMax =  -3.30362846251807E-04  1.45555100524736E-01
 cg2d: Sum(rhs),rhsMax =  -3.30564655323337E-04  1.45553859367087E-01
 cg2d: Sum(rhs),rhsMax =  -3.30766910819047E-04  1.45552601579684E-01
 cg2d: Sum(rhs),rhsMax =  -3.30969613325026E-04  1.45551327169908E-01
 cg2d: Sum(rhs),rhsMax =  -3.31172763533771E-04  1.45550036145177E-01
 cg2d: Sum(rhs),rhsMax =  -3.31376362042768E-04  1.45548728512945E-01
 cg2d: Sum(rhs),rhsMax =  -3.31580409451095E-04  1.45547404280702E-01
 cg2d: Sum(rhs),rhsMax =  -3.31784906302806E-04  1.45546063455975E-01
 cg2d: Sum(rhs),rhsMax =  -3.31989853206149E-04  1.45544706046328E-01
 cg2d: Sum(rhs),rhsMax =  -3.32195250820472E-04  1.45543332059357E-01
 cg2d: Sum(rhs),rhsMax =  -3.32401099573098E-04  1.45541941502700E-01
 cg2d: Sum(rhs),rhsMax =  -3.32607400092096E-04  1.45540534384028E-01
 cg2d: Sum(rhs),rhsMax =  -3.32814152919429E-04  1.45539110711046E-01
 cg2d: Sum(rhs),rhsMax =  -3.33021358553186E-04  1.45537670491498E-01
 cg2d: Sum(rhs),rhsMax =  -3.33229017490676E-04  1.45536213733166E-01
 cg2d: Sum(rhs),rhsMax =  -3.33437130273862E-04  1.45534740443862E-01
 cg2d: Sum(rhs),rhsMax =  -3.33645697393413E-04  1.45533250631438E-01
 cg2d: Sum(rhs),rhsMax =  -3.33854719373781E-04  1.45531744303784E-01
 cg2d: Sum(rhs),rhsMax =  -3.34064196740913E-04  1.45530221468821E-01
 cg2d: Sum(rhs),rhsMax =  -3.34274129764703E-04  1.45528682134509E-01
 cg2d: Sum(rhs),rhsMax =  -3.34484519138551E-04  1.45527126308843E-01
 cg2d: Sum(rhs),rhsMax =  -3.34695365152443E-04  1.45525553999854E-01
 cg2d: Sum(rhs),rhsMax =  -3.34906668316532E-04  1.45523965215610E-01
 cg2d: Sum(rhs),rhsMax =  -3.35118429167071E-04  1.45522359964213E-01
 cg2d: Sum(rhs),rhsMax =  -3.35330543700425E-04  1.45520783501901E-01
 cg2d: Sum(rhs),rhsMax =  -3.35542318196795E-04  1.45519536830613E-01
 cg2d: Sum(rhs),rhsMax =  -3.35754549350822E-04  1.45518274147122E-01
 cg2d: Sum(rhs),rhsMax =  -3.35967237595840E-04  1.45516995459173E-01
 cg2d: Sum(rhs),rhsMax =  -3.36180383380070E-04  1.45515700774548E-01
 cg2d: Sum(rhs),rhsMax =  -3.36393987033080E-04  1.45514390101064E-01
 cg2d: Sum(rhs),rhsMax =  -3.36608048862921E-04  1.45513063446573E-01
 cg2d: Sum(rhs),rhsMax =  -3.36822569322276E-04  1.45511720818962E-01
 cg2d: Sum(rhs),rhsMax =  -3.37037548765832E-04  1.45510362226154E-01
 cg2d: Sum(rhs),rhsMax =  -3.37252987509526E-04  1.45508987676106E-01
 cg2d: Sum(rhs),rhsMax =  -3.37468885944321E-04  1.45507597176813E-01
 cg2d: Sum(rhs),rhsMax =  -3.37685244295944E-04  1.45506190736302E-01
(PID.TID 0000.0001)      cg2d_init_res =   9.93302310211148E-04
(PID.TID 0000.0001)      cg2d_iters(min,last) =      -1      75
(PID.TID 0000.0001)      cg2d_last_res =   9.08615400690853E-08
(PID.TID 0000.0001) // =======================================================
(PID.TID 0000.0001) // Begin MONITOR dynamic field statistics
(PID.TID 0000.0001) // =======================================================
(PID.TID 0000.0001) %MON time_tsnumber                =                 10152
(PID.TID 0000.0001) %MON time_secondsf                =   1.2182400000000E+07
(PID.TID 0000.0001) %MON dynstat_eta_max              =   5.5993080906361E-02
(PID.TID 0000.0001) %MON dynstat_eta_min              =  -1.8937247447985E-02
(PID.TID 0000.0001) %MON dynstat_eta_mean             =   2.4583180701392E-07
(PID.TID 0000.0001) %MON dynstat_eta_sd               =   1.9206579432376E-02
(PID.TID 0000.0001) %MON dynstat_eta_del2             =   1.8300672021827E-05
(PID.TID 0000.0001) %MON dynstat_uvel_max             =   3.2969950580081E-02
(PID.TID 0000.0001) %MON dynstat_uvel_min             =  -1.6449164097020E-02
(PID.TID 0000.0001) %MON dynstat_uvel_mean            =   1.3637606455874E-07
(PID.TID 0000.0001) %MON dynstat_uvel_sd              =   6.7257020536225E-03
(PID.TID 0000.0001) %MON dynstat_uvel_del2            =   8.3493872978875E-06
(PID.TID 0000.0001) %MON dynstat_vvel_max             =   8.8081300803243E-02
(PID.TID 0000.0001) %MON dynstat_vvel_min             =  -3.1198364510108E-02
(PID.TID 0000.0001) %MON dynstat_vvel_mean            =   1.3329906913041E-08
(PID.TID 0000.0001) %MON dynstat_vvel_sd              =   1.5652327750001E-02
(PID.TID 0000.0001) %MON dynstat_vvel_del2            =   7.6878347586535E-05
(PID.TID 0000.0001) %MON dynstat_wvel_max             =   9.7348991476611E-09
(PID.TID 0000.0001) %MON dynstat_wvel_min             =  -1.3474585163640E-08
(PID.TID 0000.0001) %MON dynstat_wvel_mean            =  -2.1039217143779E-21
(PID.TID 0000.0001) %MON dynstat_wvel_sd              =   6.0230543236357E-09
(PID.TID 0000.0001) %MON dynstat_wvel_del2            =   2.0987177185998E-12
(PID.TID 0000.0001) %MON dynstat_theta_max            =   2.0000000000000E+01
(PID.TID 0000.0001) %MON dynstat_theta_min            =   2.0000000000000E+01
(PID.TID 0000.0001) %MON dynstat_theta_mean           =   2.0000000000000E+01
(PID.TID 0000.0001) %MON dynstat_theta_sd             =   0.0000000000000E+00
(PID.TID 0000.0001) %MON dynstat_theta_del2           =   0.0000000000000E+00
(PID.TID 0000.0001) %MON dynstat_salt_max             =   3.0000000000000E+01
(PID.TID 0000.0001) %MON dynstat_salt_min             =   3.0000000000000E+01
(PID.TID 0000.0001) %MON dynstat_salt_mean            =   3.0000000000000E+01
(PID.TID 0000.0001) %MON dynstat_salt_sd              =   0.0000000000000E+00
(PID.TID 0000.0001) %MON dynstat_salt_del2            =   0.0000000000000E+00
(PID.TID 0000.0001) %MON trAdv_CFL_u_max              =   1.9782109710130E-03
(PID.TID 0000.0001) %MON trAdv_CFL_v_max              =   5.2848927919279E-03
(PID.TID 0000.0001) %MON trAdv_CFL_w_max              =   2.3351204657054E-09
(PID.TID 0000.0001) %MON advcfl_uvel_max              =   1.9781970348049E-03
(PID.TID 0000.0001) %MON advcfl_vvel_max              =   5.2848780481946E-03
(PID.TID 0000.0001) %MON advcfl_wvel_max              =   6.4678008785471E-09
(PID.TID 0000.0001) %MON advcfl_W_hf_max              =   0.0000000000000E+00
(PID.TID 0000.0001) %MON pe_b_mean                    =   3.6188373237512E-07
(PID.TID 0000.0001) %MON ke_max                       =   3.8732876592167E-03
(PID.TID 0000.0001) %MON ke_mean                      =   1.4269662912878E-04
(PID.TID 0000.0001) %MON ke_vol                       =   7.2000000000000E+15
(PID.TID 0000.0001) %MON vort_r_min                   =  -1.4613422158057E-06
(PID.TID 0000.0001) %MON vort_r_max                   =   2.4261793930977E-06
(PID.TID 0000.0001) %MON vort_a_mean                  =   1.0600000000000E-04
(PID.TID 0000.0001) %MON vort_a_sd                    =   3.5381575386902E-06
(PID.TID 0000.0001) %MON vort_p_mean                  =   1.1130000000000E-04
(PID.TID 0000.0001) %MON vort_p_sd                    =   4.1150109670177E-05
(PID.TID 0000.0001) %MON surfExpan_theta_mean         =  -4.2077072690303E-20
(PID.TID 0000.0001) %MON surfExpan_salt_mean          =  -6.3115769401002E-20
(PID.TID 0000.0001) // =======================================================
(PID.TID 0000.0001) // End MONITOR dynamic field statistics
(PID.TID 0000.0001) // =======================================================
 cg2d: Sum(rhs),rhsMax =  -3.37902063022152E-04  1.45504768362636E-01
 cg2d: Sum(rhs),rhsMax =  -3.38119342271288E-04  1.45503330063916E-01
 cg2d: Sum(rhs),rhsMax =  -3.38337082474717E-04  1.45501875848274E-01
 cg2d: Sum(rhs),rhsMax =  -3.38555283911555E-04  1.45500405723879E-01
 cg2d: Sum(rhs),rhsMax =  -3.38773946930507E-04  1.45498919698938E-01
 cg2d: Sum(rhs),rhsMax =  -3.38993071725920E-04  1.45497417781687E-01
 cg2d: Sum(rhs),rhsMax =  -3.39212658672152E-04  1.45495899980402E-01
 cg2d: Sum(rhs),rhsMax =  -3.39432708072082E-04  1.45494366303391E-01
 cg2d: Sum(rhs),rhsMax =  -3.39653220146167E-04  1.45492816759002E-01
 cg2d: Sum(rhs),rhsMax =  -3.39874194982568E-04  1.45491251355610E-01
 cg2d: Sum(rhs),rhsMax =  -3.40095633107728E-04  1.45489670101632E-01
 cg2d: Sum(rhs),rhsMax =  -3.40317534620575E-04  1.45488073005517E-01
 cg2d: Sum(rhs),rhsMax =  -3.40539899759025E-04  1.45486460075749E-01
 cg2d: Sum(rhs),rhsMax =  -3.40762728787545E-04  1.45484831320847E-01
 cg2d: Sum(rhs),rhsMax =  -3.40986021962830E-04  1.45483186749366E-01
 cg2d: Sum(rhs),rhsMax =  -3.41209779465432E-04  1.45481526369895E-01
 cg2d: Sum(rhs),rhsMax =  -3.41434001648501E-04  1.45479850191057E-01
 cg2d: Sum(rhs),rhsMax =  -3.41658688503188E-04  1.45478158221511E-01
 cg2d: Sum(rhs),rhsMax =  -3.41883840383013E-04  1.45476450469949E-01
 cg2d: Sum(rhs),rhsMax =  -3.42109457473021E-04  1.45474726945102E-01
 cg2d: Sum(rhs),rhsMax =  -3.42335539962324E-04  1.45472987655732E-01
 cg2d: Sum(rhs),rhsMax =  -3.42562087970398E-04  1.45471232610636E-01
 cg2d: Sum(rhs),rhsMax =  -3.42789101760453E-04  1.45469461818647E-01
 cg2d: Sum(rhs),rhsMax =  -3.43016581412909E-04  1.45467675288631E-01
 cg2d: Sum(rhs),rhsMax =  -3.43244527255019E-04  1.45465873029491E-01
 cg2d: Sum(rhs),rhsMax =  -3.43472939391464E-04  1.45464055050163E-01
 cg2d: Sum(rhs),rhsMax =  -3.43701817935424E-04  1.45462221359617E-01
 cg2d: Sum(rhs),rhsMax =  -3.43931163015737E-04  1.45460371966860E-01
 cg2d: Sum(rhs),rhsMax =  -3.44160974887773E-04  1.45458506880931E-01
 cg2d: Sum(rhs),rhsMax =  -3.44391253581194E-04  1.45456626110905E-01
 cg2d: Sum(rhs),rhsMax =  -3.44621999348745E-04  1.45454729665891E-01
 cg2d: Sum(rhs),rhsMax =  -3.44853212285687E-04  1.45452817555032E-01
 cg2d: Sum(rhs),rhsMax =  -3.45084892486546E-04  1.45450889787508E-01
 cg2d: Sum(rhs),rhsMax =  -3.45317040133827E-04  1.45448946372530E-01
 cg2d: Sum(rhs),rhsMax =  -3.45549655316267E-04  1.45446987319345E-01
 cg2d: Sum(rhs),rhsMax =  -3.45782738174841E-04  1.45445012637234E-01
 cg2d: Sum(rhs),rhsMax =  -3.46016288750739E-04  1.45443022335513E-01
 cg2d: Sum(rhs),rhsMax =  -3.46250307292661E-04  1.45441016423532E-01
 cg2d: Sum(rhs),rhsMax =  -3.46484793840857E-04  1.45438994910676E-01
 cg2d: Sum(rhs),rhsMax =  -3.46719748472664E-04  1.45436957806362E-01
 cg2d: Sum(rhs),rhsMax =  -3.46955171245479E-04  1.45434905120043E-01
 cg2d: Sum(rhs),rhsMax =  -3.47191062407295E-04  1.45432836861208E-01
 cg2d: Sum(rhs),rhsMax =  -3.47427421923211E-04  1.45430753039376E-01
 cg2d: Sum(rhs),rhsMax =  -3.47664249880828E-04  1.45428653664104E-01
 cg2d: Sum(rhs),rhsMax =  -3.47901546312423E-04  1.45426538744980E-01
 cg2d: Sum(rhs),rhsMax =  -3.48139311439532E-04  1.45424408291629E-01
 cg2d: Sum(rhs),rhsMax =  -3.48377545216975E-04  1.45422262313709E-01
 cg2d: Sum(rhs),rhsMax =  -3.48616247849120E-04  1.45420100820910E-01
 cg2d: Sum(rhs),rhsMax =  -3.48855419222008E-04  1.45417923822961E-01
 cg2d: Sum(rhs),rhsMax =  -3.49095059507818E-04  1.45415731329619E-01
 cg2d: Sum(rhs),rhsMax =  -3.49335168828314E-04  1.45413523350680E-01
 cg2d: Sum(rhs),rhsMax =  -3.49575747169550E-04  1.45411299895970E-01
 cg2d: Sum(rhs),rhsMax =  -3.49816794513397E-04  1.45409060975353E-01
 cg2d: Sum(rhs),rhsMax =  -3.50058311102464E-04  1.45406806598723E-01
 cg2d: Sum(rhs),rhsMax =  -3.50300296824720E-04  1.45404536776011E-01
 cg2d: Sum(rhs),rhsMax =  -3.50542751781376E-04  1.45402251517180E-01
 cg2d: Sum(rhs),rhsMax =  -3.50785676010970E-04  1.45399950832227E-01
 cg2d: Sum(rhs),rhsMax =  -3.51029069562882E-04  1.45397634731184E-01
 cg2d: Sum(rhs),rhsMax =  -3.51272932400681E-04  1.45395303224116E-01
 cg2d: Sum(rhs),rhsMax =  -3.51517264654901E-04  1.45392956321121E-01
 cg2d: Sum(rhs),rhsMax =  -3.51762066349907E-04  1.45390594032332E-01
 cg2d: Sum(rhs),rhsMax =  -3.52007337463829E-04  1.45388216367916E-01
 cg2d: Sum(rhs),rhsMax =  -3.52253078058883E-04  1.45385823338071E-01
 cg2d: Sum(rhs),rhsMax =  -3.52499288191494E-04  1.45383414953033E-01
 cg2d: Sum(rhs),rhsMax =  -3.52745967859181E-04  1.45380991223066E-01
 cg2d: Sum(rhs),rhsMax =  -3.52993117022219E-04  1.45378552158475E-01
 cg2d: Sum(rhs),rhsMax =  -3.53240735849078E-04  1.45376097769590E-01
 cg2d: Sum(rhs),rhsMax =  -3.53488824168141E-04  1.45373628066782E-01
 cg2d: Sum(rhs),rhsMax =  -3.53737382128033E-04  1.45371143060450E-01
 cg2d: Sum(rhs),rhsMax =  -3.53986409703795E-04  1.45368642761031E-01
 cg2d: Sum(rhs),rhsMax =  -3.54235906900376E-04  1.45366127178992E-01
 cg2d: Sum(rhs),rhsMax =  -3.54485873761535E-04  1.45363596324836E-01
(PID.TID 0000.0001)      cg2d_init_res =   9.96442815636126E-04
(PID.TID 0000.0001)      cg2d_iters(min,last) =      -1      75
(PID.TID 0000.0001)      cg2d_last_res =   9.56319046723239E-08
(PID.TID 0000.0001) // =======================================================
(PID.TID 0000.0001) // Begin MONITOR dynamic field statistics
(PID.TID 0000.0001) // =======================================================
(PID.TID 0000.0001) %MON time_tsnumber                =                 10224
(PID.TID 0000.0001) %MON time_secondsf                =   1.2268800000000E+07
(PID.TID 0000.0001) %MON dynstat_eta_max              =   5.6145690407695E-02
(PID.TID 0000.0001) %MON dynstat_eta_min              =  -1.8518550088633E-02
(PID.TID 0000.0001) %MON dynstat_eta_mean             =   2.5782421304088E-07
(PID.TID 0000.0001) %MON dynstat_eta_sd               =   1.8918316845879E-02
(PID.TID 0000.0001) %MON dynstat_eta_del2             =   1.8320611413249E-05
(PID.TID 0000.0001) %MON dynstat_uvel_max             =   3.2944639776688E-02
(PID.TID 0000.0001) %MON dynstat_uvel_min             =  -1.6304577251444E-02
(PID.TID 0000.0001) %MON dynstat_uvel_mean            =   1.6240649781546E-07
(PID.TID 0000.0001) %MON dynstat_uvel_sd              =   6.6126115892456E-03
(PID.TID 0000.0001) %MON dynstat_uvel_del2            =   8.3078729605490E-06
(PID.TID 0000.0001) %MON dynstat_vvel_max             =   8.8036805866498E-02
(PID.TID 0000.0001) %MON dynstat_vvel_min             =  -3.1442887964430E-02
(PID.TID 0000.0001) %MON dynstat_vvel_mean            =   1.2540922994500E-08
(PID.TID 0000.0001) %MON dynstat_vvel_sd              =   1.5615381222265E-02
(PID.TID 0000.0001) %MON dynstat_vvel_del2            =   7.6882539832556E-05
(PID.TID 0000.0001) %MON dynstat_wvel_max             =   1.0166359250361E-08
(PID.TID 0000.0001) %MON dynstat_wvel_min             =  -1.3803871370037E-08
(PID.TID 0000.0001) %MON dynstat_wvel_mean            =  -1.7273254747528E-21
(PID.TID 0000.0001) %MON dynstat_wvel_sd              =   6.0104347913342E-09
(PID.TID 0000.0001) %MON dynstat_wvel_del2            =   2.0811453072186E-12
(PID.TID 0000.0001) %MON dynstat_theta_max            =   2.0000000000000E+01
(PID.TID 0000.0001) %MON dynstat_theta_min            =   2.0000000000000E+01
(PID.TID 0000.0001) %MON dynstat_theta_mean           =   2.0000000000000E+01
(PID.TID 0000.0001) %MON dynstat_theta_sd             =   0.0000000000000E+00
(PID.TID 0000.0001) %MON dynstat_theta_del2           =   0.0000000000000E+00
(PID.TID 0000.0001) %MON dynstat_salt_max             =   3.0000000000000E+01
(PID.TID 0000.0001) %MON dynstat_salt_min             =   3.0000000000000E+01
(PID.TID 0000.0001) %MON dynstat_salt_mean            =   3.0000000000000E+01
(PID.TID 0000.0001) %MON dynstat_salt_sd              =   0.0000000000000E+00
(PID.TID 0000.0001) %MON dynstat_salt_del2            =   0.0000000000000E+00
(PID.TID 0000.0001) %MON trAdv_CFL_u_max              =   1.9767063945678E-03
(PID.TID 0000.0001) %MON trAdv_CFL_v_max              =   5.2822669385648E-03
(PID.TID 0000.0001) %MON trAdv_CFL_w_max              =   2.4385145082080E-09
(PID.TID 0000.0001) %MON advcfl_uvel_max              =   1.9766783866013E-03
(PID.TID 0000.0001) %MON advcfl_vvel_max              =   5.2822083519899E-03
(PID.TID 0000.0001) %MON advcfl_wvel_max              =   6.6258582576178E-09
(PID.TID 0000.0001) %MON advcfl_W_hf_max              =   0.0000000000000E+00
(PID.TID 0000.0001) %MON pe_b_mean                    =   3.5110256081294E-07
(PID.TID 0000.0001) %MON ke_max                       =   3.8688512311243E-03
(PID.TID 0000.0001) %MON ke_mean                      =   1.4138699169693E-04
(PID.TID 0000.0001) %MON ke_vol                       =   7.2000000000000E+15
(PID.TID 0000.0001) %MON vort_r_min                   =  -1.4673884685126E-06
(PID.TID 0000.0001) %MON vort_r_max                   =   2.4212688108071E-06
(PID.TID 0000.0001) %MON vort_a_mean                  =   1.0600000000000E-04
(PID.TID 0000.0001) %MON vort_a_sd                    =   3.5381214833011E-06
(PID.TID 0000.0001) %MON vort_p_mean                  =   1.1130000000000E-04
(PID.TID 0000.0001) %MON vort_p_sd                    =   4.1149954547273E-05
(PID.TID 0000.0001) %MON surfExpan_theta_mean         =  -3.4551398779096E-20
(PID.TID 0000.0001) %MON surfExpan_salt_mean          =  -5.1819876784660E-20
(PID.TID 0000.0001) // =======================================================
(PID.TID 0000.0001) // End MONITOR dynamic field statistics
(PID.TID 0000.0001) // =======================================================
 cg2d: Sum(rhs),rhsMax =  -3.54736310280198E-04  1.45361050209097E-01
 cg2d: Sum(rhs),rhsMax =  -3.54987216475292E-04  1.45358488842343E-01
 cg2d: Sum(rhs),rhsMax =  -3.55238592258468E-04  1.45355912235178E-01
 cg2d: Sum(rhs),rhsMax =  -3.55490437769119E-04  1.45353320398236E-01
 cg2d: Sum(rhs),rhsMax =  -3.55742752871056E-04  1.45350713342186E-01
 cg2d: Sum(rhs),rhsMax =  -3.55995537691701E-04  1.45348091077729E-01
 cg2d: Sum(rhs),rhsMax =  -3.56248792136265E-04  1.45345453615600E-01
 cg2d: Sum(rhs),rhsMax =  -3.56502516334641E-04  1.45342800966569E-01
 cg2d: Sum(rhs),rhsMax =  -3.56756710087073E-04  1.45340133141435E-01
 cg2d: Sum(rhs),rhsMax =  -3.57011373549434E-04  1.45337450151035E-01
 cg2d: Sum(rhs),rhsMax =  -3.57266506737111E-04  1.45334752006235E-01
 cg2d: Sum(rhs),rhsMax =  -3.57522109504410E-04  1.45332038717935E-01
 cg2d: Sum(rhs),rhsMax =  -3.57778181931423E-04  1.45329310297071E-01
 cg2d: Sum(rhs),rhsMax =  -3.58034723914935E-04  1.45326566754609E-01
 cg2d: Sum(rhs),rhsMax =  -3.58291735513040E-04  1.45323808101549E-01
 cg2d: Sum(rhs),rhsMax =  -3.58549216753874E-04  1.45321034348923E-01
 cg2d: Sum(rhs),rhsMax =  -3.58807167645230E-04  1.45318245507799E-01
 cg2d: Sum(rhs),rhsMax =  -3.59065588071598E-04  1.45315441589273E-01
 cg2d: Sum(rhs),rhsMax =  -3.59324478120805E-04  1.45312622604478E-01
 cg2d: Sum(rhs),rhsMax =  -3.59583837710654E-04  1.45309788564579E-01
 cg2d: Sum(rhs),rhsMax =  -3.59843666957261E-04  1.45306939480773E-01
 cg2d: Sum(rhs),rhsMax =  -3.60103965698235E-04  1.45304075364290E-01
 cg2d: Sum(rhs),rhsMax =  -3.60364733953043E-04  1.45301196226392E-01
 cg2d: Sum(rhs),rhsMax =  -3.60625971727770E-04  1.45298302078375E-01
 cg2d: Sum(rhs),rhsMax =  -3.60887679018121E-04  1.45295392931569E-01
 cg2d: Sum(rhs),rhsMax =  -3.61149855783605E-04  1.45292468797333E-01
 cg2d: Sum(rhs),rhsMax =  -3.61412501989357E-04  1.45289529687063E-01
 cg2d: Sum(rhs),rhsMax =  -3.61675617640086E-04  1.45286575612183E-01
 cg2d: Sum(rhs),rhsMax =  -3.61939202825816E-04  1.45283606584153E-01
 cg2d: Sum(rhs),rhsMax =  -3.62203257408332E-04  1.45280622614464E-01
 cg2d: Sum(rhs),rhsMax =  -3.62467781421104E-04  1.45277623714640E-01
 cg2d: Sum(rhs),rhsMax =  -3.62732774859967E-04  1.45274609896239E-01
 cg2d: Sum(rhs),rhsMax =  -3.62998237716189E-04  1.45271581170848E-01
 cg2d: Sum(rhs),rhsMax =  -3.63264169912300E-04  1.45268537550090E-01
 cg2d: Sum(rhs),rhsMax =  -3.63530571503986E-04  1.45265479045617E-01
 cg2d: Sum(rhs),rhsMax =  -3.63797442404563E-04  1.45262405669118E-01
 cg2d: Sum(rhs),rhsMax =  -3.64064782629282E-04  1.45259317432309E-01
 cg2d: Sum(rhs),rhsMax =  -3.64332592262969E-04  1.45256214346942E-01
 cg2d: Sum(rhs),rhsMax =  -3.64600871071642E-04  1.45253096424800E-01
 cg2d: Sum(rhs),rhsMax =  -3.64869619284463E-04  1.45249963677700E-01
 cg2d: Sum(rhs),rhsMax =  -3.65138836840849E-04  1.45246816117487E-01
 cg2d: Sum(rhs),rhsMax =  -3.65408523628760E-04  1.45243653756043E-01
 cg2d: Sum(rhs),rhsMax =  -3.65678679768975E-04  1.45240476605278E-01
 cg2d: Sum(rhs),rhsMax =  -3.65949305115370E-04  1.45237284677139E-01
 cg2d: Sum(rhs),rhsMax =  -3.66220399746064E-04  1.45234077983600E-01
 cg2d: Sum(rhs),rhsMax =  -3.66491963632820E-04  1.45230856536670E-01
 cg2d: Sum(rhs),rhsMax =  -3.66763996806186E-04  1.45227620348389E-01
 cg2d: Sum(rhs),rhsMax =  -3.67036499171589E-04  1.45224369430831E-01
 cg2d: Sum(rhs),rhsMax =  -3.67309470832741E-04  1.45221103796099E-01
 cg2d: Sum(rhs),rhsMax =  -3.67582911774892E-04  1.45217823456330E-01
 cg2d: Sum(rhs),rhsMax =  -3.67856821884362E-04  1.45214528423692E-01
 cg2d: Sum(rhs),rhsMax =  -3.68131201281121E-04  1.45211218710385E-01
 cg2d: Sum(rhs),rhsMax =  -3.68406049896364E-04  1.45207894328641E-01
 cg2d: Sum(rhs),rhsMax =  -3.68681367855355E-04  1.45204555290724E-01
 cg2d: Sum(rhs),rhsMax =  -3.68957154994554E-04  1.45201201608929E-01
 cg2d: Sum(rhs),rhsMax =  -3.69233411433745E-04  1.45197833295585E-01
 cg2d: Sum(rhs),rhsMax =  -3.69510137050846E-04  1.45194450363050E-01
 cg2d: Sum(rhs),rhsMax =  -3.69787331972282E-04  1.45191052823715E-01
 cg2d: Sum(rhs),rhsMax =  -3.70064996206659E-04  1.45187640690001E-01
 cg2d: Sum(rhs),rhsMax =  -3.70343129748113E-04  1.45184213974365E-01
 cg2d: Sum(rhs),rhsMax =  -3.70621732519481E-04  1.45180772689290E-01
 cg2d: Sum(rhs),rhsMax =  -3.70900804608837E-04  1.45177316847295E-01
 cg2d: Sum(rhs),rhsMax =  -3.71180346051500E-04  1.45173846460928E-01
 cg2d: Sum(rhs),rhsMax =  -3.71460356844715E-04  1.45170361542769E-01
 cg2d: Sum(rhs),rhsMax =  -3.71740837020586E-04  1.45166862105430E-01
 cg2d: Sum(rhs),rhsMax =  -3.72021786504591E-04  1.45163348161555E-01
 cg2d: Sum(rhs),rhsMax =  -3.72303205428528E-04  1.45159819723816E-01
 cg2d: Sum(rhs),rhsMax =  -3.72585093759477E-04  1.45156276804922E-01
 cg2d: Sum(rhs),rhsMax =  -3.72867451611065E-04  1.45152719417610E-01
 cg2d: Sum(rhs),rhsMax =  -3.73150278877116E-04  1.45149147574646E-01
 cg2d: Sum(rhs),rhsMax =  -3.73433575639301E-04  1.45145561288831E-01
 cg2d: Sum(rhs),rhsMax =  -3.73717341937744E-04  1.45141960572998E-01
(PID.TID 0000.0001)      cg2d_init_res =   1.00003754493838E-03
(PID.TID 0000.0001)      cg2d_iters(min,last) =      -1      75
(PID.TID 0000.0001)      cg2d_last_res =   9.90224384502741E-08
(PID.TID 0000.0001) // =======================================================
(PID.TID 0000.0001) // Begin MONITOR dynamic field statistics
(PID.TID 0000.0001) // =======================================================
(PID.TID 0000.0001) %MON time_tsnumber                =                 10296
(PID.TID 0000.0001) %MON time_secondsf                =   1.2355200000000E+07
(PID.TID 0000.0001) %MON dynstat_eta_max              =   5.6220001937933E-02
(PID.TID 0000.0001) %MON dynstat_eta_min              =  -1.8128018765959E-02
(PID.TID 0000.0001) %MON dynstat_eta_mean             =   2.7140985099974E-07
(PID.TID 0000.0001) %MON dynstat_eta_sd               =   1.8609307348046E-02
(PID.TID 0000.0001) %MON dynstat_eta_del2             =   1.8336447212218E-05
(PID.TID 0000.0001) %MON dynstat_uvel_max             =   3.2902638578918E-02
(PID.TID 0000.0001) %MON dynstat_uvel_min             =  -1.6150008136909E-02
(PID.TID 0000.0001) %MON dynstat_uvel_mean            =   1.8637088546994E-07
(PID.TID 0000.0001) %MON dynstat_uvel_sd              =   6.4999784807890E-03
(PID.TID 0000.0001) %MON dynstat_uvel_del2            =   8.2660978796397E-06
(PID.TID 0000.0001) %MON dynstat_vvel_max             =   8.7940598627662E-02
(PID.TID 0000.0001) %MON dynstat_vvel_min             =  -3.1690031475680E-02
(PID.TID 0000.0001) %MON dynstat_vvel_mean            =   1.1614578805801E-08
(PID.TID 0000.0001) %MON dynstat_vvel_sd              =   1.5570563254441E-02
(PID.TID 0000.0001) %MON dynstat_vvel_del2            =   7.6859358319446E-05
(PID.TID 0000.0001) %MON dynstat_wvel_max             =   1.0534481611612E-08
(PID.TID 0000.0001) %MON dynstat_wvel_min             =  -1.4072680601384E-08
(PID.TID 0000.0001) %MON dynstat_wvel_mean            =  -2.2070101598122E-21
(PID.TID 0000.0001) %MON dynstat_wvel_sd              =   5.9958097934635E-09
(PID.TID 0000.0001) %MON dynstat_wvel_del2            =   2.0665676992507E-12
(PID.TID 0000.0001) %MON dynstat_theta_max            =   2.0000000000000E+01
(PID.TID 0000.0001) %MON dynstat_theta_min            =   2.0000000000000E+01
(PID.TID 0000.0001) %MON dynstat_theta_mean           =   2.0000000000000E+01
(PID.TID 0000.0001) %MON dynstat_theta_sd             =   0.0000000000000E+00
(PID.TID 0000.0001) %MON dynstat_theta_del2           =   0.0000000000000E+00
(PID.TID 0000.0001) %MON dynstat_salt_max             =   3.0000000000000E+01
(PID.TID 0000.0001) %MON dynstat_salt_min             =   3.0000000000000E+01
(PID.TID 0000.0001) %MON dynstat_salt_mean            =   3.0000000000000E+01
(PID.TID 0000.0001) %MON dynstat_salt_sd              =   0.0000000000000E+00
(PID.TID 0000.0001) %MON dynstat_salt_del2            =   0.0000000000000E+00
(PID.TID 0000.0001) %MON trAdv_CFL_u_max              =   1.9742000477328E-03
(PID.TID 0000.0001) %MON trAdv_CFL_v_max              =   5.2765367896200E-03
(PID.TID 0000.0001) %MON trAdv_CFL_w_max              =   2.5267202154966E-09
(PID.TID 0000.0001) %MON advcfl_uvel_max              =   1.9741583147351E-03
(PID.TID 0000.0001) %MON advcfl_vvel_max              =   5.2764359176597E-03
(PID.TID 0000.0001) %MON advcfl_wvel_max              =   6.7548866886646E-09
(PID.TID 0000.0001) %MON advcfl_W_hf_max              =   0.0000000000000E+00
(PID.TID 0000.0001) %MON pe_b_mean                    =   3.3972649996680E-07
(PID.TID 0000.0001) %MON ke_max                       =   3.8612939793477E-03
(PID.TID 0000.0001) %MON ke_mean                      =   1.3997364550351E-04
(PID.TID 0000.0001) %MON ke_vol                       =   7.2000000000000E+15
(PID.TID 0000.0001) %MON vort_r_min                   =  -1.4731607746936E-06
(PID.TID 0000.0001) %MON vort_r_max                   =   2.4150083932970E-06
(PID.TID 0000.0001) %MON vort_a_mean                  =   1.0600000000000E-04
(PID.TID 0000.0001) %MON vort_a_sd                    =   3.5380716053673E-06
(PID.TID 0000.0001) %MON vort_p_mean                  =   1.1130000000000E-04
(PID.TID 0000.0001) %MON vort_p_sd                    =   4.1149810478996E-05
(PID.TID 0000.0001) %MON surfExpan_theta_mean         =  -4.4138751912707E-20
(PID.TID 0000.0001) %MON surfExpan_salt_mean          =  -6.6206393453980E-20
(PID.TID 0000.0001) // =======================================================
(PID.TID 0000.0001) // End MONITOR dynamic field statistics
(PID.TID 0000.0001) // =======================================================
 cg2d: Sum(rhs),rhsMax =  -3.74001577825184E-04  1.45138345440007E-01
 cg2d: Sum(rhs),rhsMax =  -3.74286283404233E-04  1.45134715902752E-01
 cg2d: Sum(rhs),rhsMax =  -3.74571458609222E-04  1.45131071974158E-01
 cg2d: Sum(rhs),rhsMax =  -3.74857103469345E-04  1.45127413667180E-01
 cg2d: Sum(rhs),rhsMax =  -3.75143218008553E-04  1.45123740994805E-01
 cg2d: Sum(rhs),rhsMax =  -3.75429802397310E-04  1.45120053970051E-01
 cg2d: Sum(rhs),rhsMax =  -3.75716856555594E-04  1.45116352605968E-01
 cg2d: Sum(rhs),rhsMax =  -3.76004380595314E-04  1.45112636915632E-01
 cg2d: Sum(rhs),rhsMax =  -3.76292374504387E-04  1.45108906912158E-01
 cg2d: Sum(rhs),rhsMax =  -3.76580838417267E-04  1.45105162608685E-01
 cg2d: Sum(rhs),rhsMax =  -3.76869772306029E-04  1.45101404018386E-01
 cg2d: Sum(rhs),rhsMax =  -3.77159176316175E-04  1.45097631154464E-01
 cg2d: Sum(rhs),rhsMax =  -3.77449050438555E-04  1.45093844030154E-01
 cg2d: Sum(rhs),rhsMax =  -3.77739394733236E-04  1.45090042658720E-01
 cg2d: Sum(rhs),rhsMax =  -3.78030209251261E-04  1.45086227053458E-01
 cg2d: Sum(rhs),rhsMax =  -3.78321494138206E-04  1.45082397227694E-01
 cg2d: Sum(rhs),rhsMax =  -3.78613249454464E-04  1.45078553194785E-01
 cg2d: Sum(rhs),rhsMax =  -3.78905475248333E-04  1.45074694968118E-01
 cg2d: Sum(rhs),rhsMax =  -3.79198171576860E-04  1.45070822561112E-01
 cg2d: Sum(rhs),rhsMax =  -3.79491338457048E-04  1.45066935987215E-01
 cg2d: Sum(rhs),rhsMax =  -3.79784976000296E-04  1.45063035259907E-01
 cg2d: Sum(rhs),rhsMax =  -3.80079084455916E-04  1.45059120392696E-01
 cg2d: Sum(rhs),rhsMax =  -3.80373663775867E-04  1.45055191399125E-01
 cg2d: Sum(rhs),rhsMax =  -3.80668713987789E-04  1.45051248292762E-01
 cg2d: Sum(rhs),rhsMax =  -3.80964235267641E-04  1.45047291087209E-01
 cg2d: Sum(rhs),rhsMax =  -3.81260227695153E-04  1.45043319796096E-01
 cg2d: Sum(rhs),rhsMax =  -3.81556691336730E-04  1.45039334433087E-01
 cg2d: Sum(rhs),rhsMax =  -3.81853626276827E-04  1.45035335011871E-01
 cg2d: Sum(rhs),rhsMax =  -3.82151032658257E-04  1.45031321546173E-01
 cg2d: Sum(rhs),rhsMax =  -3.82448910685010E-04  1.45027294049743E-01
 cg2d: Sum(rhs),rhsMax =  -3.82747260264107E-04  1.45023252536366E-01
 cg2d: Sum(rhs),rhsMax =  -3.83046081532672E-04  1.45019197019852E-01
 cg2d: Sum(rhs),rhsMax =  -3.83345374764690E-04  1.45015127514044E-01
 cg2d: Sum(rhs),rhsMax =  -3.83645139998954E-04  1.45011044032816E-01
 cg2d: Sum(rhs),rhsMax =  -3.83945377357768E-04  1.45006946590071E-01
 cg2d: Sum(rhs),rhsMax =  -3.84246086914387E-04  1.45002835199741E-01
 cg2d: Sum(rhs),rhsMax =  -3.84501152586095E-04  1.44998709777301E-01
 cg2d: Sum(rhs),rhsMax =  -3.84756621801523E-04  1.44994570527702E-01
 cg2d: Sum(rhs),rhsMax =  -3.85012452652040E-04  1.44990417379203E-01
 cg2d: Sum(rhs),rhsMax =  -3.85268676155755E-04  1.44986250341179E-01
 cg2d: Sum(rhs),rhsMax =  -3.85525300973103E-04  1.44982069425573E-01
 cg2d: Sum(rhs),rhsMax =  -3.85782327680160E-04  1.44977874647468E-01
 cg2d: Sum(rhs),rhsMax =  -3.86039753184159E-04  1.44973666020962E-01
 cg2d: Sum(rhs),rhsMax =  -3.86297574332838E-04  1.44969443559746E-01
 cg2d: Sum(rhs),rhsMax =  -3.86555789109843E-04  1.44965207277681E-01
 cg2d: Sum(rhs),rhsMax =  -3.86814397579668E-04  1.44960957188863E-01
 cg2d: Sum(rhs),rhsMax =  -3.87073400665544E-04  1.44956693307559E-01
 cg2d: Sum(rhs),rhsMax =  -3.87332799447821E-04  1.44952415648121E-01
 cg2d: Sum(rhs),rhsMax =  -3.87592594810052E-04  1.44948124224935E-01
 cg2d: Sum(rhs),rhsMax =  -3.87852787027646E-04  1.44943819052390E-01
 cg2d: Sum(rhs),rhsMax =  -3.88113376116240E-04  1.44939500144870E-01
 cg2d: Sum(rhs),rhsMax =  -3.88374362074833E-04  1.44935167516769E-01
 cg2d: Sum(rhs),rhsMax =  -3.88635745047295E-04  1.44930821182503E-01
 cg2d: Sum(rhs),rhsMax =  -3.88897525161825E-04  1.44926461156525E-01
 cg2d: Sum(rhs),rhsMax =  -3.89159702811917E-04  1.44922087453327E-01
 cg2d: Sum(rhs),rhsMax =  -3.89422278224624E-04  1.44917700087438E-01
 cg2d: Sum(rhs),rhsMax =  -3.89685251725318E-04  1.44913299073418E-01
 cg2d: Sum(rhs),rhsMax =  -3.89948623578155E-04  1.44908884425856E-01
 cg2d: Sum(rhs),rhsMax =  -3.90212393963086E-04  1.44904456159366E-01
 cg2d: Sum(rhs),rhsMax =  -3.90476563244857E-04  1.44900014288591E-01
 cg2d: Sum(rhs),rhsMax =  -3.90741131512795E-04  1.44895558828199E-01
 cg2d: Sum(rhs),rhsMax =  -3.91006099194576E-04  1.44891089792889E-01
 cg2d: Sum(rhs),rhsMax =  -3.91271466414472E-04  1.44886607197388E-01
 cg2d: Sum(rhs),rhsMax =  -3.91537233615906E-04  1.44882111056454E-01
 cg2d: Sum(rhs),rhsMax =  -3.91803400981135E-04  1.44877601384873E-01
 cg2d: Sum(rhs),rhsMax =  -3.92069968868027E-04  1.44873078197462E-01
 cg2d: Sum(rhs),rhsMax =  -3.92336937457063E-04  1.44868541509064E-01
 cg2d: Sum(rhs),rhsMax =  -3.92604307112314E-04  1.44863991334554E-01
 cg2d: Sum(rhs),rhsMax =  -3.92872078096579E-04  1.44859427688834E-01
 cg2d: Sum(rhs),rhsMax =  -3.93140250777602E-04  1.44854850586835E-01
 cg2d: Sum(rhs),rhsMax =  -3.93408825410267E-04  1.44850260043515E-01
 cg2d: Sum(rhs),rhsMax =  -3.93677802266196E-04  1.44845656073863E-01
(PID.TID 0000.0001)      cg2d_init_res =   1.00378124676871E-03
(PID.TID 0000.0001)      cg2d_iters(min,last) =      -1      76
(PID.TID 0000.0001)      cg2d_last_res =   8.38273768439301E-08
(PID.TID 0000.0001) // =======================================================
(PID.TID 0000.0001) // Begin MONITOR dynamic field statistics
(PID.TID 0000.0001) // =======================================================
(PID.TID 0000.0001) %MON time_tsnumber                =                 10368
(PID.TID 0000.0001) %MON time_secondsf                =   1.2441600000000E+07
(PID.TID 0000.0001) %MON dynstat_eta_max              =   5.6221588590925E-02
(PID.TID 0000.0001) %MON dynstat_eta_min              =  -1.7769980388759E-02
(PID.TID 0000.0001) %MON dynstat_eta_mean             =   2.8529859495896E-07
(PID.TID 0000.0001) %MON dynstat_eta_sd               =   1.8282298349278E-02
(PID.TID 0000.0001) %MON dynstat_eta_del2             =   1.8347947883461E-05
(PID.TID 0000.0001) %MON dynstat_uvel_max             =   3.2844454648654E-02
(PID.TID 0000.0001) %MON dynstat_uvel_min             =  -1.5986785065342E-02
(PID.TID 0000.0001) %MON dynstat_uvel_mean            =   2.0798713955037E-07
(PID.TID 0000.0001) %MON dynstat_uvel_sd              =   6.3888271907039E-03
(PID.TID 0000.0001) %MON dynstat_uvel_del2            =   8.2238918619890E-06
(PID.TID 0000.0001) %MON dynstat_vvel_max             =   8.7794837341035E-02
(PID.TID 0000.0001) %MON dynstat_vvel_min             =  -3.1936515333897E-02
(PID.TID 0000.0001) %MON dynstat_vvel_mean            =   1.0561175267423E-08
(PID.TID 0000.0001) %MON dynstat_vvel_sd              =   1.5518343720827E-02
(PID.TID 0000.0001) %MON dynstat_vvel_del2            =   7.6809008741069E-05
(PID.TID 0000.0001) %MON dynstat_wvel_max             =   1.0934243689990E-08
(PID.TID 0000.0001) %MON dynstat_wvel_min             =  -1.4276416276698E-08
(PID.TID 0000.0001) %MON dynstat_wvel_mean            =   3.4139813780914E-21
(PID.TID 0000.0001) %MON dynstat_wvel_sd              =   5.9786360239797E-09
(PID.TID 0000.0001) %MON dynstat_wvel_del2            =   2.0511072683146E-12
(PID.TID 0000.0001) %MON dynstat_theta_max            =   2.0000000000000E+01
(PID.TID 0000.0001) %MON dynstat_theta_min            =   2.0000000000000E+01
(PID.TID 0000.0001) %MON dynstat_theta_mean           =   2.0000000000000E+01
(PID.TID 0000.0001) %MON dynstat_theta_sd             =   0.0000000000000E+00
(PID.TID 0000.0001) %MON dynstat_theta_del2           =   0.0000000000000E+00
(PID.TID 0000.0001) %MON dynstat_salt_max             =   3.0000000000000E+01
(PID.TID 0000.0001) %MON dynstat_salt_min             =   3.0000000000000E+01
(PID.TID 0000.0001) %MON dynstat_salt_mean            =   3.0000000000000E+01
(PID.TID 0000.0001) %MON dynstat_salt_sd              =   0.0000000000000E+00
(PID.TID 0000.0001) %MON dynstat_salt_del2            =   0.0000000000000E+00
(PID.TID 0000.0001) %MON trAdv_CFL_u_max              =   1.9707222404724E-03
(PID.TID 0000.0001) %MON trAdv_CFL_v_max              =   5.2678313689687E-03
(PID.TID 0000.0001) %MON trAdv_CFL_w_max              =   2.6230776836223E-09
(PID.TID 0000.0001) %MON advcfl_uvel_max              =   1.9706672789193E-03
(PID.TID 0000.0001) %MON advcfl_vvel_max              =   5.2676902404621E-03
(PID.TID 0000.0001) %MON advcfl_wvel_max              =   6.8526798128150E-09
(PID.TID 0000.0001) %MON advcfl_W_hf_max              =   0.0000000000000E+00
(PID.TID 0000.0001) %MON pe_b_mean                    =   3.2789182678615E-07
(PID.TID 0000.0001) %MON ke_max                       =   3.8494459066893E-03
(PID.TID 0000.0001) %MON ke_mean                      =   1.3847108483727E-04
(PID.TID 0000.0001) %MON ke_vol                       =   7.2000000000000E+15
(PID.TID 0000.0001) %MON vort_r_min                   =  -1.4786087797405E-06
(PID.TID 0000.0001) %MON vort_r_max                   =   2.4078310654987E-06
(PID.TID 0000.0001) %MON vort_a_mean                  =   1.0600000000000E-04
(PID.TID 0000.0001) %MON vort_a_sd                    =   3.5380084345126E-06
(PID.TID 0000.0001) %MON vort_p_mean                  =   1.1130000000000E-04
(PID.TID 0000.0001) %MON vort_p_sd                    =   4.1149678948039E-05
(PID.TID 0000.0001) %MON surfExpan_theta_mean         =   6.8270603984881E-20
(PID.TID 0000.0001) %MON surfExpan_salt_mean          =   1.0241028765752E-19
(PID.TID 0000.0001) // =======================================================
(PID.TID 0000.0001) // End MONITOR dynamic field statistics
(PID.TID 0000.0001) // =======================================================
 cg2d: Sum(rhs),rhsMax =  -3.93947181706446E-04  1.44841038692897E-01
 cg2d: Sum(rhs),rhsMax =  -3.94216964086022E-04  1.44836407915661E-01
 cg2d: Sum(rhs),rhsMax =  -3.94487149655352E-04  1.44831763757228E-01
 cg2d: Sum(rhs),rhsMax =  -3.94757738817673E-04  1.44827106232701E-01
 cg2d: Sum(rhs),rhsMax =  -3.95028731786807E-04  1.44822435357212E-01
 cg2d: Sum(rhs),rhsMax =  -3.95300128963931E-04  1.44817751145919E-01
 cg2d: Sum(rhs),rhsMax =  -3.95571930775809E-04  1.44813053614010E-01
 cg2d: Sum(rhs),rhsMax =  -3.95844137355448E-04  1.44808342776700E-01
 cg2d: Sum(rhs),rhsMax =  -3.96116749267104E-04  1.44803618649236E-01
 cg2d: Sum(rhs),rhsMax =  -3.96389766712000E-04  1.44798881246888E-01
 cg2d: Sum(rhs),rhsMax =  -3.96663190053372E-04  1.44794130584959E-01
 cg2d: Sum(rhs),rhsMax =  -3.96937019664929E-04  1.44789366678776E-01
 cg2d: Sum(rhs),rhsMax =  -3.97211255998189E-04  1.44784589543698E-01
 cg2d: Sum(rhs),rhsMax =  -3.97485899314532E-04  1.44779799195108E-01
 cg2d: Sum(rhs),rhsMax =  -3.97760949977274E-04  1.44774995648421E-01
 cg2d: Sum(rhs),rhsMax =  -3.98036408449477E-04  1.44770178919079E-01
 cg2d: Sum(rhs),rhsMax =  -3.98312275067480E-04  1.44765349022551E-01
 cg2d: Sum(rhs),rhsMax =  -3.98588550132299E-04  1.44760505974333E-01
 cg2d: Sum(rhs),rhsMax =  -3.98865234204262E-04  1.44755649789952E-01
 cg2d: Sum(rhs),rhsMax =  -3.99142327565275E-04  1.44750780484960E-01
 cg2d: Sum(rhs),rhsMax =  -3.99419830610283E-04  1.44745898074939E-01
 cg2d: Sum(rhs),rhsMax =  -3.99697743791987E-04  1.44741002575498E-01
 cg2d: Sum(rhs),rhsMax =  -3.99976067430875E-04  1.44736094002272E-01
 cg2d: Sum(rhs),rhsMax =  -4.00254801993918E-04  1.44731172370928E-01
 cg2d: Sum(rhs),rhsMax =  -4.00533947917799E-04  1.44726237697155E-01
 cg2d: Sum(rhs),rhsMax =  -4.00813505606424E-04  1.44721289996674E-01
 cg2d: Sum(rhs),rhsMax =  -4.01093475428488E-04  1.44716329285233E-01
 cg2d: Sum(rhs),rhsMax =  -4.01373857806218E-04  1.44711355578606E-01
 cg2d: Sum(rhs),rhsMax =  -4.01654653258337E-04  1.44706368892595E-01
 cg2d: Sum(rhs),rhsMax =  -4.01935862190600E-04  1.44701369243030E-01
 cg2d: Sum(rhs),rhsMax =  -4.02217485005789E-04  1.44696356645770E-01
 cg2d: Sum(rhs),rhsMax =  -4.02499522201946E-04  1.44691331116698E-01
 cg2d: Sum(rhs),rhsMax =  -4.02781974168002E-04  1.44686292671726E-01
 cg2d: Sum(rhs),rhsMax =  -4.03064841432285E-04  1.44681241326794E-01
 cg2d: Sum(rhs),rhsMax =  -4.03348124293852E-04  1.44676177097869E-01
 cg2d: Sum(rhs),rhsMax =  -4.03631823417204E-04  1.44671100000944E-01
 cg2d: Sum(rhs),rhsMax =  -4.03915939240408E-04  1.44666010052040E-01
 cg2d: Sum(rhs),rhsMax =  -4.04200472144886E-04  1.44660907267206E-01
 cg2d: Sum(rhs),rhsMax =  -4.04485422676604E-04  1.44655791662516E-01
 cg2d: Sum(rhs),rhsMax =  -4.04770791252443E-04  1.44650663254074E-01
 cg2d: Sum(rhs),rhsMax =  -4.05056578309191E-04  1.44645522058010E-01
 cg2d: Sum(rhs),rhsMax =  -4.05342784471575E-04  1.44640368090479E-01
 cg2d: Sum(rhs),rhsMax =  -4.05629410072414E-04  1.44635201367665E-01
 cg2d: Sum(rhs),rhsMax =  -4.05916455840537E-04  1.44630021905779E-01
 cg2d: Sum(rhs),rhsMax =  -4.06203922173554E-04  1.44624829721056E-01
 cg2d: Sum(rhs),rhsMax =  -4.06491809440511E-04  1.44619624829762E-01
 cg2d: Sum(rhs),rhsMax =  -4.06780118293936E-04  1.44614407248189E-01
 cg2d: Sum(rhs),rhsMax =  -4.07068849269487E-04  1.44609176992652E-01
 cg2d: Sum(rhs),rhsMax =  -4.07358002919499E-04  1.44603934079497E-01
 cg2d: Sum(rhs),rhsMax =  -4.07647579625422E-04  1.44598678525094E-01
 cg2d: Sum(rhs),rhsMax =  -4.07937579993019E-04  1.44593410345841E-01
 cg2d: Sum(rhs),rhsMax =  -4.08228004535925E-04  1.44588129558163E-01
 cg2d: Sum(rhs),rhsMax =  -4.08518853913097E-04  1.44582836178510E-01
 cg2d: Sum(rhs),rhsMax =  -4.08810128604230E-04  1.44577530223358E-01
 cg2d: Sum(rhs),rhsMax =  -4.09101829037318E-04  1.44572211709214E-01
 cg2d: Sum(rhs),rhsMax =  -4.09393955843104E-04  1.44566880652606E-01
 cg2d: Sum(rhs),rhsMax =  -4.09686509665903E-04  1.44561537070090E-01
 cg2d: Sum(rhs),rhsMax =  -4.09979490976448E-04  1.44556180978249E-01
 cg2d: Sum(rhs),rhsMax =  -4.10272900332935E-04  1.44550812393693E-01
 cg2d: Sum(rhs),rhsMax =  -4.10566738422817E-04  1.44545431333058E-01
 cg2d: Sum(rhs),rhsMax =  -4.10861005735270E-04  1.44540037813004E-01
 cg2d: Sum(rhs),rhsMax =  -4.11208968954045E-04  1.44534631877905E-01
 cg2d: Sum(rhs),rhsMax =  -4.11557413369850E-04  1.44529213493086E-01
 cg2d: Sum(rhs),rhsMax =  -4.11906401142959E-04  1.44523782693846E-01
 cg2d: Sum(rhs),rhsMax =  -4.12255891438528E-04  1.44518339500043E-01
 cg2d: Sum(rhs),rhsMax =  -4.12605878923015E-04  1.44512883930648E-01
 cg2d: Sum(rhs),rhsMax =  -4.12956362814542E-04  1.44507416001394E-01
 cg2d: Sum(rhs),rhsMax =  -4.13307347045167E-04  1.44501935729372E-01
 cg2d: Sum(rhs),rhsMax =  -4.13658835667019E-04  1.44496443131865E-01
 cg2d: Sum(rhs),rhsMax =  -4.14010831402642E-04  1.44490938226083E-01
 cg2d: Sum(rhs),rhsMax =  -4.14363334983899E-04  1.44485421029049E-01
 cg2d: Sum(rhs),rhsMax =  -4.14716346289755E-04  1.44479891557709E-01
(PID.TID 0000.0001)      cg2d_init_res =   1.00737887784511E-03
(PID.TID 0000.0001)      cg2d_iters(min,last) =      -1      75
(PID.TID 0000.0001)      cg2d_last_res =   9.96886322102456E-08
(PID.TID 0000.0001) // =======================================================
(PID.TID 0000.0001) // Begin MONITOR dynamic field statistics
(PID.TID 0000.0001) // =======================================================
(PID.TID 0000.0001) %MON time_tsnumber                =                 10440
(PID.TID 0000.0001) %MON time_secondsf                =   1.2528000000000E+07
(PID.TID 0000.0001) %MON dynstat_eta_max              =   5.6132172741569E-02
(PID.TID 0000.0001) %MON dynstat_eta_min              =  -1.7448355260280E-02
(PID.TID 0000.0001) %MON dynstat_eta_mean             =   2.9983474428145E-07
(PID.TID 0000.0001) %MON dynstat_eta_sd               =   1.7940301303089E-02
(PID.TID 0000.0001) %MON dynstat_eta_del2             =   1.8354935532357E-05
(PID.TID 0000.0001) %MON dynstat_uvel_max             =   3.2770772014764E-02
(PID.TID 0000.0001) %MON dynstat_uvel_min             =  -1.5816352340279E-02
(PID.TID 0000.0001) %MON dynstat_uvel_mean            =   2.2700564226558E-07
(PID.TID 0000.0001) %MON dynstat_uvel_sd              =   6.2801941338817E-03
(PID.TID 0000.0001) %MON dynstat_uvel_del2            =   8.1811106817690E-06
(PID.TID 0000.0001) %MON dynstat_vvel_max             =   8.7602229233728E-02
(PID.TID 0000.0001) %MON dynstat_vvel_min             =  -3.2179060029389E-02
(PID.TID 0000.0001) %MON dynstat_vvel_mean            =   9.3926021940479E-09
(PID.TID 0000.0001) %MON dynstat_vvel_sd              =   1.5459276311512E-02
(PID.TID 0000.0001) %MON dynstat_vvel_del2            =   7.6731976565524E-05
(PID.TID 0000.0001) %MON dynstat_wvel_max             =   1.1264140725252E-08
(PID.TID 0000.0001) %MON dynstat_wvel_min             =  -1.4373346777866E-08
(PID.TID 0000.0001) %MON dynstat_wvel_mean            =   4.9934290776340E-23
(PID.TID 0000.0001) %MON dynstat_wvel_sd              =   5.9584734503818E-09
(PID.TID 0000.0001) %MON dynstat_wvel_del2            =   2.0458256507855E-12
(PID.TID 0000.0001) %MON dynstat_theta_max            =   2.0000000000000E+01
(PID.TID 0000.0001) %MON dynstat_theta_min            =   2.0000000000000E+01
(PID.TID 0000.0001) %MON dynstat_theta_mean           =   2.0000000000000E+01
(PID.TID 0000.0001) %MON dynstat_theta_sd             =   0.0000000000000E+00
(PID.TID 0000.0001) %MON dynstat_theta_del2           =   0.0000000000000E+00
(PID.TID 0000.0001) %MON dynstat_salt_max             =   3.0000000000000E+01
(PID.TID 0000.0001) %MON dynstat_salt_min             =   3.0000000000000E+01
(PID.TID 0000.0001) %MON dynstat_salt_mean            =   3.0000000000000E+01
(PID.TID 0000.0001) %MON dynstat_salt_sd              =   0.0000000000000E+00
(PID.TID 0000.0001) %MON dynstat_salt_del2            =   0.0000000000000E+00
(PID.TID 0000.0001) %MON trAdv_CFL_u_max              =   1.9663138705509E-03
(PID.TID 0000.0001) %MON trAdv_CFL_v_max              =   5.2563126670281E-03
(PID.TID 0000.0001) %MON trAdv_CFL_w_max              =   2.7021453749039E-09
(PID.TID 0000.0001) %MON advcfl_uvel_max              =   1.9662463208858E-03
(PID.TID 0000.0001) %MON advcfl_vvel_max              =   5.2561337540237E-03
(PID.TID 0000.0001) %MON advcfl_wvel_max              =   6.8992064533755E-09
(PID.TID 0000.0001) %MON advcfl_W_hf_max              =   0.0000000000000E+00
(PID.TID 0000.0001) %MON pe_b_mean                    =   3.1573917712775E-07
(PID.TID 0000.0001) %MON ke_max                       =   3.8335577985686E-03
(PID.TID 0000.0001) %MON ke_mean                      =   1.3689478072255E-04
(PID.TID 0000.0001) %MON ke_vol                       =   7.2000000000000E+15
(PID.TID 0000.0001) %MON vort_r_min                   =  -1.4836964279068E-06
(PID.TID 0000.0001) %MON vort_r_max                   =   2.3998648823039E-06
(PID.TID 0000.0001) %MON vort_a_mean                  =   1.0600000000000E-04
(PID.TID 0000.0001) %MON vort_a_sd                    =   3.5379326527534E-06
(PID.TID 0000.0001) %MON vort_p_mean                  =   1.1130000000000E-04
(PID.TID 0000.0001) %MON vort_p_sd                    =   4.1149561303528E-05
(PID.TID 0000.0001) %MON surfExpan_theta_mean         =   1.0028915969290E-21
(PID.TID 0000.0001) %MON surfExpan_salt_mean          =   1.5066663965829E-21
(PID.TID 0000.0001) // =======================================================
(PID.TID 0000.0001) // End MONITOR dynamic field statistics
(PID.TID 0000.0001) // =======================================================
 cg2d: Sum(rhs),rhsMax =  -4.15069864821884E-04  1.44474349828981E-01
 cg2d: Sum(rhs),rhsMax =  -4.15423890681609E-04  1.44468795859807E-01
 cg2d: Sum(rhs),rhsMax =  -4.15778424247676E-04  1.44463229667178E-01
 cg2d: Sum(rhs),rhsMax =  -4.16133466168742E-04  1.44457651268137E-01
 cg2d: Sum(rhs),rhsMax =  -4.16489017381488E-04  1.44452060679770E-01
 cg2d: Sum(rhs),rhsMax =  -4.16845078495450E-04  1.44446457919194E-01
 cg2d: Sum(rhs),rhsMax =  -4.17201650142905E-04  1.44440843003548E-01
 cg2d: Sum(rhs),rhsMax =  -4.17558732877795E-04  1.44435215949986E-01
 cg2d: Sum(rhs),rhsMax =  -4.17916327241551E-04  1.44429576775683E-01
 cg2d: Sum(rhs),rhsMax =  -4.18274433711054E-04  1.44423925497836E-01
 cg2d: Sum(rhs),rhsMax =  -4.18633052847427E-04  1.44418262133667E-01
 cg2d: Sum(rhs),rhsMax =  -4.18992185298523E-04  1.44412586700429E-01
 cg2d: Sum(rhs),rhsMax =  -4.19351831589009E-04  1.44406899215398E-01
 cg2d: Sum(rhs),rhsMax =  -4.19711992373483E-04  1.44401199695878E-01
 cg2d: Sum(rhs),rhsMax =  -4.20072668275853E-04  1.44395488159201E-01
 cg2d: Sum(rhs),rhsMax =  -4.20433859938372E-04  1.44389764622719E-01
 cg2d: Sum(rhs),rhsMax =  -4.20795567846473E-04  1.44384029103810E-01
 cg2d: Sum(rhs),rhsMax =  -4.21157792576565E-04  1.44378281619880E-01
 cg2d: Sum(rhs),rhsMax =  -4.21520534955735E-04  1.44372522188354E-01
 cg2d: Sum(rhs),rhsMax =  -4.21883795389041E-04  1.44366750826686E-01
 cg2d: Sum(rhs),rhsMax =  -4.22247574589171E-04  1.44360967552353E-01
 cg2d: Sum(rhs),rhsMax =  -4.22611873229288E-04  1.44355172382858E-01
 cg2d: Sum(rhs),rhsMax =  -4.22976691856849E-04  1.44349365335728E-01
 cg2d: Sum(rhs),rhsMax =  -4.23342031088673E-04  1.44343546428515E-01
 cg2d: Sum(rhs),rhsMax =  -4.23707891685117E-04  1.44337715678795E-01
 cg2d: Sum(rhs),rhsMax =  -4.24074274172702E-04  1.44331873104170E-01
 cg2d: Sum(rhs),rhsMax =  -4.24441179219291E-04  1.44326018722267E-01
 cg2d: Sum(rhs),rhsMax =  -4.24808607573865E-04  1.44320152550734E-01
 cg2d: Sum(rhs),rhsMax =  -4.25176559709198E-04  1.44314274607248E-01
 cg2d: Sum(rhs),rhsMax =  -4.25545036376101E-04  1.44308384909508E-01
 cg2d: Sum(rhs),rhsMax =  -4.25914038250512E-04  1.44302483475236E-01
 cg2d: Sum(rhs),rhsMax =  -4.26283566036964E-04  1.44296570322183E-01
 cg2d: Sum(rhs),rhsMax =  -4.26653620283627E-04  1.44290645468118E-01
 cg2d: Sum(rhs),rhsMax =  -4.27024201649023E-04  1.44284708930840E-01
 cg2d: Sum(rhs),rhsMax =  -4.27395310896337E-04  1.44278760728169E-01
 cg2d: Sum(rhs),rhsMax =  -4.27766948728286E-04  1.44272800877949E-01
 cg2d: Sum(rhs),rhsMax =  -4.28139115762738E-04  1.44266829398051E-01
 cg2d: Sum(rhs),rhsMax =  -4.28511812742262E-04  1.44260846306367E-01
 cg2d: Sum(rhs),rhsMax =  -4.28885040308088E-04  1.44254851620815E-01
 cg2d: Sum(rhs),rhsMax =  -4.29258799245550E-04  1.44248845359335E-01
 cg2d: Sum(rhs),rhsMax =  -4.29633090129574E-04  1.44242827539893E-01
 cg2d: Sum(rhs),rhsMax =  -4.30007913762630E-04  1.44236798180477E-01
 cg2d: Sum(rhs),rhsMax =  -4.30383270739396E-04  1.44230757299101E-01
 cg2d: Sum(rhs),rhsMax =  -4.30759161899646E-04  1.44224704913803E-01
 cg2d: Sum(rhs),rhsMax =  -4.31135587750789E-04  1.44218641042640E-01
 cg2d: Sum(rhs),rhsMax =  -4.31512549202703E-04  1.44212565703699E-01
 cg2d: Sum(rhs),rhsMax =  -4.31890046914885E-04  1.44206478915087E-01
 cg2d: Sum(rhs),rhsMax =  -4.32268081612875E-04  1.44200380694935E-01
 cg2d: Sum(rhs),rhsMax =  -4.32646653999335E-04  1.44194271061399E-01
 cg2d: Sum(rhs),rhsMax =  -4.33025764807299E-04  1.44188150032657E-01
 cg2d: Sum(rhs),rhsMax =  -4.33405414752406E-04  1.44182017626911E-01
 cg2d: Sum(rhs),rhsMax =  -4.33785604570049E-04  1.44175873862386E-01
 cg2d: Sum(rhs),rhsMax =  -4.34166335117201E-04  1.44169718757333E-01
 cg2d: Sum(rhs),rhsMax =  -4.34547606983393E-04  1.44163552330022E-01
 cg2d: Sum(rhs),rhsMax =  -4.34929420985851E-04  1.44157374598750E-01
 cg2d: Sum(rhs),rhsMax =  -4.35311777780091E-04  1.44151185581836E-01
 cg2d: Sum(rhs),rhsMax =  -4.35694678237163E-04  1.44144985297621E-01
 cg2d: Sum(rhs),rhsMax =  -4.36078122972034E-04  1.44138773764471E-01
 cg2d: Sum(rhs),rhsMax =  -4.36462112955250E-04  1.44132551000774E-01
 cg2d: Sum(rhs),rhsMax =  -4.36846648681455E-04  1.44126317024942E-01
 cg2d: Sum(rhs),rhsMax =  -4.37231731085006E-04  1.44120071855408E-01
 cg2d: Sum(rhs),rhsMax =  -4.37617360921576E-04  1.44113815510631E-01
 cg2d: Sum(rhs),rhsMax =  -4.38003538921688E-04  1.44107548009091E-01
 cg2d: Sum(rhs),rhsMax =  -4.38390265868932E-04  1.44101269369292E-01
 cg2d: Sum(rhs),rhsMax =  -4.38777542488998E-04  1.44094979609759E-01
 cg2d: Sum(rhs),rhsMax =  -4.39165369609505E-04  1.44088678749041E-01
 cg2d: Sum(rhs),rhsMax =  -4.39553747996595E-04  1.44082366805710E-01
 cg2d: Sum(rhs),rhsMax =  -4.39942678474278E-04  1.44076043798361E-01
 cg2d: Sum(rhs),rhsMax =  -4.40332161760823E-04  1.44069709745611E-01
 cg2d: Sum(rhs),rhsMax =  -4.40722198711042E-04  1.44063364666099E-01
 cg2d: Sum(rhs),rhsMax =  -4.41112790103038E-04  1.44057008578487E-01
 cg2d: Sum(rhs),rhsMax =  -4.41503936726874E-04  1.44050641501461E-01
(PID.TID 0000.0001)      cg2d_init_res =   1.01055234986158E-03
(PID.TID 0000.0001)      cg2d_iters(min,last) =      -1      75
(PID.TID 0000.0001)      cg2d_last_res =   9.64766137543661E-08
(PID.TID 0000.0001) // =======================================================
(PID.TID 0000.0001) // Begin MONITOR dynamic field statistics
(PID.TID 0000.0001) // =======================================================
(PID.TID 0000.0001) %MON time_tsnumber                =                 10512
(PID.TID 0000.0001) %MON time_secondsf                =   1.2614400000000E+07
(PID.TID 0000.0001) %MON dynstat_eta_max              =   5.5953779190528E-02
(PID.TID 0000.0001) %MON dynstat_eta_min              =  -1.7166610612834E-02
(PID.TID 0000.0001) %MON dynstat_eta_mean             =   3.1826265940516E-07
(PID.TID 0000.0001) %MON dynstat_eta_sd               =   1.7586589520590E-02
(PID.TID 0000.0001) %MON dynstat_eta_del2             =   1.8357287176522E-05
(PID.TID 0000.0001) %MON dynstat_uvel_max             =   3.2682442978194E-02
(PID.TID 0000.0001) %MON dynstat_uvel_min             =  -1.5640254193855E-02
(PID.TID 0000.0001) %MON dynstat_uvel_mean            =   2.4320871805907E-07
(PID.TID 0000.0001) %MON dynstat_uvel_sd              =   6.1751278760481E-03
(PID.TID 0000.0001) %MON dynstat_uvel_del2            =   8.1376661518452E-06
(PID.TID 0000.0001) %MON dynstat_vvel_max             =   8.7365993878427E-02
(PID.TID 0000.0001) %MON dynstat_vvel_min             =  -3.2414425532893E-02
(PID.TID 0000.0001) %MON dynstat_vvel_mean            =   8.1218126694414E-09
(PID.TID 0000.0001) %MON dynstat_vvel_sd              =   1.5393989252122E-02
(PID.TID 0000.0001) %MON dynstat_vvel_del2            =   7.6629019499751E-05
(PID.TID 0000.0001) %MON dynstat_wvel_max             =   1.1571984118273E-08
(PID.TID 0000.0001) %MON dynstat_wvel_min             =  -1.4423628926161E-08
(PID.TID 0000.0001) %MON dynstat_wvel_mean            =   4.3617875336268E-21
(PID.TID 0000.0001) %MON dynstat_wvel_sd              =   5.9350058034289E-09
(PID.TID 0000.0001) %MON dynstat_wvel_del2            =   2.0389797001012E-12
(PID.TID 0000.0001) %MON dynstat_theta_max            =   2.0000000000000E+01
(PID.TID 0000.0001) %MON dynstat_theta_min            =   2.0000000000000E+01
(PID.TID 0000.0001) %MON dynstat_theta_mean           =   2.0000000000000E+01
(PID.TID 0000.0001) %MON dynstat_theta_sd             =   0.0000000000000E+00
(PID.TID 0000.0001) %MON dynstat_theta_del2           =   0.0000000000000E+00
(PID.TID 0000.0001) %MON dynstat_salt_max             =   3.0000000000000E+01
(PID.TID 0000.0001) %MON dynstat_salt_min             =   3.0000000000000E+01
(PID.TID 0000.0001) %MON dynstat_salt_mean            =   3.0000000000000E+01
(PID.TID 0000.0001) %MON dynstat_salt_sd              =   0.0000000000000E+00
(PID.TID 0000.0001) %MON dynstat_salt_del2            =   0.0000000000000E+00
(PID.TID 0000.0001) %MON trAdv_CFL_u_max              =   1.9610259397015E-03
(PID.TID 0000.0001) %MON trAdv_CFL_v_max              =   5.2421734480723E-03
(PID.TID 0000.0001) %MON trAdv_CFL_w_max              =   2.7764671959216E-09
(PID.TID 0000.0001) %MON advcfl_uvel_max              =   1.9609465786917E-03
(PID.TID 0000.0001) %MON advcfl_vvel_max              =   5.2419596327056E-03
(PID.TID 0000.0001) %MON advcfl_wvel_max              =   6.9233418845572E-09
(PID.TID 0000.0001) %MON advcfl_W_hf_max              =   0.0000000000000E+00
(PID.TID 0000.0001) %MON pe_b_mean                    =   3.0341165657674E-07
(PID.TID 0000.0001) %MON ke_max                       =   3.8139298969133E-03
(PID.TID 0000.0001) %MON ke_mean                      =   1.3526099547428E-04
(PID.TID 0000.0001) %MON ke_vol                       =   7.2000000000000E+15
(PID.TID 0000.0001) %MON vort_r_min                   =  -1.4883921938817E-06
(PID.TID 0000.0001) %MON vort_r_max                   =   2.3909062767708E-06
(PID.TID 0000.0001) %MON vort_a_mean                  =   1.0600000000000E-04
(PID.TID 0000.0001) %MON vort_a_sd                    =   3.5378450831956E-06
(PID.TID 0000.0001) %MON vort_p_mean                  =   1.1130000000000E-04
(PID.TID 0000.0001) %MON vort_p_sd                    =   4.1149458745444E-05
(PID.TID 0000.0001) %MON surfExpan_theta_mean         =   8.7222278782267E-20
(PID.TID 0000.0001) %MON surfExpan_salt_mean          =   1.3083104969761E-19
(PID.TID 0000.0001) // =======================================================
(PID.TID 0000.0001) // End MONITOR dynamic field statistics
(PID.TID 0000.0001) // =======================================================
 cg2d: Sum(rhs),rhsMax =  -4.41895639265185E-04  1.44044263453727E-01
 cg2d: Sum(rhs),rhsMax =  -4.42287898579599E-04  1.44037874454016E-01
 cg2d: Sum(rhs),rhsMax =  -4.42680715477003E-04  1.44031474521079E-01
 cg2d: Sum(rhs),rhsMax =  -4.43074090798008E-04  1.44025063673691E-01
 cg2d: Sum(rhs),rhsMax =  -4.43468025283715E-04  1.44018641930648E-01
 cg2d: Sum(rhs),rhsMax =  -4.43862519771180E-04  1.44012209310770E-01
 cg2d: Sum(rhs),rhsMax =  -4.44257575016856E-04  1.44005765832897E-01
 cg2d: Sum(rhs),rhsMax =  -4.44653191939692E-04  1.43999311515893E-01
 cg2d: Sum(rhs),rhsMax =  -4.45049371261584E-04  1.43992846378643E-01
 cg2d: Sum(rhs),rhsMax =  -4.45446113831283E-04  1.43986370440055E-01
 cg2d: Sum(rhs),rhsMax =  -4.45843420368767E-04  1.43979883719058E-01
 cg2d: Sum(rhs),rhsMax =  -4.46241291809368E-04  1.43973386234604E-01
 cg2d: Sum(rhs),rhsMax =  -4.46639728886742E-04  1.43966878005665E-01
 cg2d: Sum(rhs),rhsMax =  -4.47038732470568E-04  1.43960359051237E-01
 cg2d: Sum(rhs),rhsMax =  -4.47438303401441E-04  1.43953829390337E-01
 cg2d: Sum(rhs),rhsMax =  -4.47838442409585E-04  1.43947289042004E-01
 cg2d: Sum(rhs),rhsMax =  -4.48239150390164E-04  1.43940738025298E-01
 cg2d: Sum(rhs),rhsMax =  -4.48640428161153E-04  1.43934176359302E-01
 cg2d: Sum(rhs),rhsMax =  -4.49042276509707E-04  1.43927604063117E-01
 cg2d: Sum(rhs),rhsMax =  -4.49444696239155E-04  1.43921021155873E-01
 cg2d: Sum(rhs),rhsMax =  -4.49847688251057E-04  1.43914427656713E-01
 cg2d: Sum(rhs),rhsMax =  -4.50251253319166E-04  1.43907823584807E-01
 cg2d: Sum(rhs),rhsMax =  -4.50655392274955E-04  1.43901208959345E-01
 cg2d: Sum(rhs),rhsMax =  -4.51060105979101E-04  1.43894583799537E-01
 cg2d: Sum(rhs),rhsMax =  -4.51465395193936E-04  1.43887948124617E-01
 cg2d: Sum(rhs),rhsMax =  -4.51871260784580E-04  1.43881301953837E-01
 cg2d: Sum(rhs),rhsMax =  -4.52277703633003E-04  1.43874645306474E-01
 cg2d: Sum(rhs),rhsMax =  -4.52684724457347E-04  1.43867978201824E-01
 cg2d: Sum(rhs),rhsMax =  -4.53092324175193E-04  1.43861300659203E-01
 cg2d: Sum(rhs),rhsMax =  -4.53500503540621E-04  1.43854612697951E-01
 cg2d: Sum(rhs),rhsMax =  -4.53909263443759E-04  1.43847914337427E-01
 cg2d: Sum(rhs),rhsMax =  -4.54318604720886E-04  1.43841205597011E-01
 cg2d: Sum(rhs),rhsMax =  -4.54728528138932E-04  1.43834486496105E-01
 cg2d: Sum(rhs),rhsMax =  -4.55139034581821E-04  1.43827757054132E-01
 cg2d: Sum(rhs),rhsMax =  -4.55550124793805E-04  1.43821017290535E-01
 cg2d: Sum(rhs),rhsMax =  -4.55961799678160E-04  1.43814267224777E-01
 cg2d: Sum(rhs),rhsMax =  -4.56374060052233E-04  1.43807506876345E-01
 cg2d: Sum(rhs),rhsMax =  -4.56786906752505E-04  1.43800736264743E-01
 cg2d: Sum(rhs),rhsMax =  -4.57200340529151E-04  1.43793955409497E-01
 cg2d: Sum(rhs),rhsMax =  -4.57614362238486E-04  1.43787164330155E-01
 cg2d: Sum(rhs),rhsMax =  -4.58028972680753E-04  1.43780363046284E-01
 cg2d: Sum(rhs),rhsMax =  -4.58444172797265E-04  1.43773551577471E-01
 cg2d: Sum(rhs),rhsMax =  -4.58859963209724E-04  1.43766729943327E-01
 cg2d: Sum(rhs),rhsMax =  -4.59276344883838E-04  1.43759898163478E-01
 cg2d: Sum(rhs),rhsMax =  -4.59693318532116E-04  1.43753056257574E-01
 cg2d: Sum(rhs),rhsMax =  -4.60110884951182E-04  1.43746204245285E-01
 cg2d: Sum(rhs),rhsMax =  -4.60529045037825E-04  1.43739342146302E-01
 cg2d: Sum(rhs),rhsMax =  -4.60947799621103E-04  1.43732469980333E-01
 cg2d: Sum(rhs),rhsMax =  -4.61367149353221E-04  1.43725587767109E-01
 cg2d: Sum(rhs),rhsMax =  -4.61787095131954E-04  1.43718695526380E-01
 cg2d: Sum(rhs),rhsMax =  -4.62207637753947E-04  1.43711793277917E-01
 cg2d: Sum(rhs),rhsMax =  -4.62628778026470E-04  1.43704881041510E-01
 cg2d: Sum(rhs),rhsMax =  -4.63050516641807E-04  1.43697958836970E-01
 cg2d: Sum(rhs),rhsMax =  -4.63472854404204E-04  1.43691026684127E-01
 cg2d: Sum(rhs),rhsMax =  -4.63895792200700E-04  1.43684084602831E-01
 cg2d: Sum(rhs),rhsMax =  -4.64319330739215E-04  1.43677132612953E-01
 cg2d: Sum(rhs),rhsMax =  -4.64743470824214E-04  1.43670170734382E-01
 cg2d: Sum(rhs),rhsMax =  -4.65168213145988E-04  1.43663198987028E-01
 cg2d: Sum(rhs),rhsMax =  -4.65593558598793E-04  1.43656217390820E-01
 cg2d: Sum(rhs),rhsMax =  -4.66019507821504E-04  1.43649225965707E-01
 cg2d: Sum(rhs),rhsMax =  -4.66446061568797E-04  1.43642224731658E-01
 cg2d: Sum(rhs),rhsMax =  -4.66873220679323E-04  1.43635213708659E-01
 cg2d: Sum(rhs),rhsMax =  -4.67300985805072E-04  1.43628192916721E-01
 cg2d: Sum(rhs),rhsMax =  -4.67729357735509E-04  1.43621162375868E-01
 cg2d: Sum(rhs),rhsMax =  -4.68158337165012E-04  1.43614122106148E-01
 cg2d: Sum(rhs),rhsMax =  -4.68587924874457E-04  1.43607072127627E-01
 cg2d: Sum(rhs),rhsMax =  -4.69018121515730E-04  1.43600012460388E-01
 cg2d: Sum(rhs),rhsMax =  -4.69448927862660E-04  1.43592943124536E-01
 cg2d: Sum(rhs),rhsMax =  -4.69880344516545E-04  1.43585864140197E-01
 cg2d: Sum(rhs),rhsMax =  -4.70312372265881E-04  1.43578775527510E-01
 cg2d: Sum(rhs),rhsMax =  -4.70745011761603E-04  1.43571677306638E-01
 cg2d: Sum(rhs),rhsMax =  -4.71178263748191E-04  1.43564569497761E-01
(PID.TID 0000.0001)      cg2d_init_res =   1.01305054300891E-03
(PID.TID 0000.0001)      cg2d_iters(min,last) =      -1      75
(PID.TID 0000.0001)      cg2d_last_res =   9.05371143510346E-08
(PID.TID 0000.0001) // =======================================================
(PID.TID 0000.0001) // Begin MONITOR dynamic field statistics
(PID.TID 0000.0001) // =======================================================
(PID.TID 0000.0001) %MON time_tsnumber                =                 10584
(PID.TID 0000.0001) %MON time_secondsf                =   1.2700800000000E+07
(PID.TID 0000.0001) %MON dynstat_eta_max              =   5.5689426929395E-02
(PID.TID 0000.0001) %MON dynstat_eta_min              =  -1.6927729428239E-02
(PID.TID 0000.0001) %MON dynstat_eta_mean             =   3.3851717801789E-07
(PID.TID 0000.0001) %MON dynstat_eta_sd               =   1.7224693845703E-02
(PID.TID 0000.0001) %MON dynstat_eta_del2             =   1.8354935231069E-05
(PID.TID 0000.0001) %MON dynstat_uvel_max             =   3.2580478031908E-02
(PID.TID 0000.0001) %MON dynstat_uvel_min             =  -1.5460117339913E-02
(PID.TID 0000.0001) %MON dynstat_uvel_mean            =   2.5641664024994E-07
(PID.TID 0000.0001) %MON dynstat_uvel_sd              =   6.0746880745452E-03
(PID.TID 0000.0001) %MON dynstat_uvel_del2            =   8.0935535843945E-06
(PID.TID 0000.0001) %MON dynstat_vvel_max             =   8.7089819975274E-02
(PID.TID 0000.0001) %MON dynstat_vvel_min             =  -3.2639450292798E-02
(PID.TID 0000.0001) %MON dynstat_vvel_mean            =   6.7630231407964E-09
(PID.TID 0000.0001) %MON dynstat_vvel_sd              =   1.5323175342197E-02
(PID.TID 0000.0001) %MON dynstat_vvel_del2            =   7.6501158089875E-05
(PID.TID 0000.0001) %MON dynstat_wvel_max             =   1.1838778081001E-08
(PID.TID 0000.0001) %MON dynstat_wvel_min             =  -1.4384700088995E-08
(PID.TID 0000.0001) %MON dynstat_wvel_mean            =   1.8416924124014E-21
(PID.TID 0000.0001) %MON dynstat_wvel_sd              =   5.9080621072387E-09
(PID.TID 0000.0001) %MON dynstat_wvel_del2            =   2.0340069625482E-12
(PID.TID 0000.0001) %MON dynstat_theta_max            =   2.0000000000000E+01
(PID.TID 0000.0001) %MON dynstat_theta_min            =   2.0000000000000E+01
(PID.TID 0000.0001) %MON dynstat_theta_mean           =   2.0000000000000E+01
(PID.TID 0000.0001) %MON dynstat_theta_sd             =   0.0000000000000E+00
(PID.TID 0000.0001) %MON dynstat_theta_del2           =   0.0000000000000E+00
(PID.TID 0000.0001) %MON dynstat_salt_max             =   3.0000000000000E+01
(PID.TID 0000.0001) %MON dynstat_salt_min             =   3.0000000000000E+01
(PID.TID 0000.0001) %MON dynstat_salt_mean            =   3.0000000000000E+01
(PID.TID 0000.0001) %MON dynstat_salt_sd              =   0.0000000000000E+00
(PID.TID 0000.0001) %MON dynstat_salt_del2            =   0.0000000000000E+00
(PID.TID 0000.0001) %MON trAdv_CFL_u_max              =   1.9549189503042E-03
(PID.TID 0000.0001) %MON trAdv_CFL_v_max              =   5.2256346624519E-03
(PID.TID 0000.0001) %MON trAdv_CFL_w_max              =   2.8404156661418E-09
(PID.TID 0000.0001) %MON advcfl_uvel_max              =   1.9548286819145E-03
(PID.TID 0000.0001) %MON advcfl_vvel_max              =   5.2253891985164E-03
(PID.TID 0000.0001) %MON advcfl_wvel_max              =   6.9046560427174E-09
(PID.TID 0000.0001) %MON advcfl_W_hf_max              =   0.0000000000000E+00
(PID.TID 0000.0001) %MON pe_b_mean                    =   2.9105296670714E-07
(PID.TID 0000.0001) %MON ke_max                       =   3.7909063293055E-03
(PID.TID 0000.0001) %MON ke_mean                      =   1.3358658943629E-04
(PID.TID 0000.0001) %MON ke_vol                       =   7.2000000000000E+15
(PID.TID 0000.0001) %MON vort_r_min                   =  -1.4926693623559E-06
(PID.TID 0000.0001) %MON vort_r_max                   =   2.3810860093974E-06
(PID.TID 0000.0001) %MON vort_a_mean                  =   1.0600000000000E-04
(PID.TID 0000.0001) %MON vort_a_sd                    =   3.5377466772675E-06
(PID.TID 0000.0001) %MON vort_p_mean                  =   1.1130000000000E-04
(PID.TID 0000.0001) %MON vort_p_sd                    =   4.1149372310911E-05
(PID.TID 0000.0001) %MON surfExpan_theta_mean         =   3.6831298504896E-20
(PID.TID 0000.0001) %MON surfExpan_salt_mean          =   5.5241066042476E-20
(PID.TID 0000.0001) // =======================================================
(PID.TID 0000.0001) // End MONITOR dynamic field statistics
(PID.TID 0000.0001) // =======================================================
 cg2d: Sum(rhs),rhsMax =  -4.71612128841906E-04  1.43557452121081E-01
 cg2d: Sum(rhs),rhsMax =  -4.72046607622045E-04  1.43550325196814E-01
 cg2d: Sum(rhs),rhsMax =  -4.72481700869391E-04  1.43543188745199E-01
 cg2d: Sum(rhs),rhsMax =  -4.72917409142791E-04  1.43536042786491E-01
 cg2d: Sum(rhs),rhsMax =  -4.73353733151946E-04  1.43528887340967E-01
 cg2d: Sum(rhs),rhsMax =  -4.73790673493223E-04  1.43521722428919E-01
 cg2d: Sum(rhs),rhsMax =  -4.74228230778231E-04  1.43514548070661E-01
 cg2d: Sum(rhs),rhsMax =  -4.74666405663037E-04  1.43507364286523E-01
 cg2d: Sum(rhs),rhsMax =  -4.75105198630110E-04  1.43500171096855E-01
 cg2d: Sum(rhs),rhsMax =  -4.75544610345387E-04  1.43492968522027E-01
 cg2d: Sum(rhs),rhsMax =  -4.75984641413800E-04  1.43485756582424E-01
 cg2d: Sum(rhs),rhsMax =  -4.76425292269636E-04  1.43478535298451E-01
 cg2d: Sum(rhs),rhsMax =  -4.76866563670286E-04  1.43471304690533E-01
 cg2d: Sum(rhs),rhsMax =  -4.77308455876717E-04  1.43464064779111E-01
 cg2d: Sum(rhs),rhsMax =  -4.77750969611885E-04  1.43456815584645E-01
 cg2d: Sum(rhs),rhsMax =  -4.78194105355923E-04  1.43449557127615E-01
 cg2d: Sum(rhs),rhsMax =  -4.78637863508075E-04  1.43442289428515E-01
 cg2d: Sum(rhs),rhsMax =  -4.79082244647434E-04  1.43435012507863E-01
 cg2d: Sum(rhs),rhsMax =  -4.79527249208005E-04  1.43427726386190E-01
 cg2d: Sum(rhs),rhsMax =  -4.79972877673869E-04  1.43420431084047E-01
 cg2d: Sum(rhs),rhsMax =  -4.80419130446286E-04  1.43413126622003E-01
 cg2d: Sum(rhs),rhsMax =  -4.80866008035725E-04  1.43405813020644E-01
 cg2d: Sum(rhs),rhsMax =  -4.81313510673289E-04  1.43398490300577E-01
 cg2d: Sum(rhs),rhsMax =  -4.81761638807893E-04  1.43391158482423E-01
 cg2d: Sum(rhs),rhsMax =  -4.82210392834278E-04  1.43383817586822E-01
 cg2d: Sum(rhs),rhsMax =  -4.82659773173680E-04  1.43376467634432E-01
 cg2d: Sum(rhs),rhsMax =  -4.83109780044932E-04  1.43369108645930E-01
 cg2d: Sum(rhs),rhsMax =  -4.83560413793561E-04  1.43361740642007E-01
 cg2d: Sum(rhs),rhsMax =  -4.84011674710688E-04  1.43354363643376E-01
 cg2d: Sum(rhs),rhsMax =  -4.84463563152578E-04  1.43346977670765E-01
 cg2d: Sum(rhs),rhsMax =  -4.84916079281597E-04  1.43339582744920E-01
 cg2d: Sum(rhs),rhsMax =  -4.85369223347901E-04  1.43332178886604E-01
 cg2d: Sum(rhs),rhsMax =  -4.85822995589696E-04  1.43324766116596E-01
 cg2d: Sum(rhs),rhsMax =  -4.86277396236300E-04  1.43317344455697E-01
 cg2d: Sum(rhs),rhsMax =  -4.86732425362935E-04  1.43309913924719E-01
 cg2d: Sum(rhs),rhsMax =  -4.87188083178414E-04  1.43302474544498E-01
 cg2d: Sum(rhs),rhsMax =  -4.87644369759129E-04  1.43295026335881E-01
 cg2d: Sum(rhs),rhsMax =  -4.88189485911826E-04  1.43287569123403E-01
 cg2d: Sum(rhs),rhsMax =  -4.88735272813819E-04  1.43280103309492E-01
 cg2d: Sum(rhs),rhsMax =  -4.89281661658789E-04  1.43272628738662E-01
 cg2d: Sum(rhs),rhsMax =  -4.89828666723586E-04  1.43265145421986E-01
 cg2d: Sum(rhs),rhsMax =  -4.90376285827898E-04  1.43257653380212E-01
 cg2d: Sum(rhs),rhsMax =  -4.90924517500942E-04  1.43250152634578E-01
 cg2d: Sum(rhs),rhsMax =  -4.91473361250018E-04  1.43242643206602E-01
 cg2d: Sum(rhs),rhsMax =  -4.92022816724330E-04  1.43235125117670E-01
 cg2d: Sum(rhs),rhsMax =  -4.92572882944023E-04  1.43227598388882E-01
 cg2d: Sum(rhs),rhsMax =  -4.93123558520122E-04  1.43220063041213E-01
 cg2d: Sum(rhs),rhsMax =  -4.93674841652106E-04  1.43212519095647E-01
 cg2d: Sum(rhs),rhsMax =  -4.94226730375790E-04  1.43204966573204E-01
 cg2d: Sum(rhs),rhsMax =  -4.94779222915531E-04  1.43197405494937E-01
 cg2d: Sum(rhs),rhsMax =  -4.95332317404766E-04  1.43189835881933E-01
 cg2d: Sum(rhs),rhsMax =  -4.95886012318354E-04  1.43182257755297E-01
 cg2d: Sum(rhs),rhsMax =  -4.96440305782144E-04  1.43174671136155E-01
 cg2d: Sum(rhs),rhsMax =  -4.96995195957626E-04  1.43167076045650E-01
 cg2d: Sum(rhs),rhsMax =  -4.97550680978575E-04  1.43159472504935E-01
 cg2d: Sum(rhs),rhsMax =  -4.98106758801034E-04  1.43151860535179E-01
 cg2d: Sum(rhs),rhsMax =  -4.98663427432021E-04  1.43144240157560E-01
 cg2d: Sum(rhs),rhsMax =  -4.99220684704100E-04  1.43136611393273E-01
 cg2d: Sum(rhs),rhsMax =  -4.99778528442324E-04  1.43128974263530E-01
 cg2d: Sum(rhs),rhsMax =  -5.00336956506950E-04  1.43121328789559E-01
 cg2d: Sum(rhs),rhsMax =  -5.00895966543508E-04  1.43113674992607E-01
 cg2d: Sum(rhs),rhsMax =  -5.01455556270284E-04  1.43106012893934E-01
 cg2d: Sum(rhs),rhsMax =  -5.02015723269559E-04  1.43098342514821E-01
 cg2d: Sum(rhs),rhsMax =  -5.02576465025128E-04  1.43090663876561E-01
 cg2d: Sum(rhs),rhsMax =  -5.03137779123330E-04  1.43082977000466E-01
 cg2d: Sum(rhs),rhsMax =  -5.03699662851120E-04  1.43075281907860E-01
 cg2d: Sum(rhs),rhsMax =  -5.04262113596601E-04  1.43067578620084E-01
 cg2d: Sum(rhs),rhsMax =  -5.04825128613040E-04  1.43059867158494E-01
 cg2d: Sum(rhs),rhsMax =  -5.05388705139422E-04  1.43052147544460E-01
 cg2d: Sum(rhs),rhsMax =  -5.05952840253803E-04  1.43044419799370E-01
 cg2d: Sum(rhs),rhsMax =  -5.06517530962851E-04  1.43036683944626E-01
 cg2d: Sum(rhs),rhsMax =  -5.07082774339000E-04  1.43028940001645E-01
(PID.TID 0000.0001)      cg2d_init_res =   1.01465433119748E-03
(PID.TID 0000.0001)      cg2d_iters(min,last) =      -1      74
(PID.TID 0000.0001)      cg2d_last_res =   9.35274559817573E-08
(PID.TID 0000.0001) // =======================================================
(PID.TID 0000.0001) // Begin MONITOR dynamic field statistics
(PID.TID 0000.0001) // =======================================================
(PID.TID 0000.0001) %MON time_tsnumber                =                 10656
(PID.TID 0000.0001) %MON time_secondsf                =   1.2787200000000E+07
(PID.TID 0000.0001) %MON dynstat_eta_max              =   5.5343096512580E-02
(PID.TID 0000.0001) %MON dynstat_eta_min              =  -1.6734167694674E-02
(PID.TID 0000.0001) %MON dynstat_eta_mean             =   3.6302250579806E-07
(PID.TID 0000.0001) %MON dynstat_eta_sd               =   1.6858394845178E-02
(PID.TID 0000.0001) %MON dynstat_eta_del2             =   1.8347867239508E-05
(PID.TID 0000.0001) %MON dynstat_uvel_max             =   3.2466033955608E-02
(PID.TID 0000.0001) %MON dynstat_uvel_min             =  -1.5277632733335E-02
(PID.TID 0000.0001) %MON dynstat_uvel_mean            =   2.6648774092682E-07
(PID.TID 0000.0001) %MON dynstat_uvel_sd              =   5.9799422404188E-03
(PID.TID 0000.0001) %MON dynstat_uvel_del2            =   8.0488749813094E-06
(PID.TID 0000.0001) %MON dynstat_vvel_max             =   8.6777816642552E-02
(PID.TID 0000.0001) %MON dynstat_vvel_min             =  -3.2851089850833E-02
(PID.TID 0000.0001) %MON dynstat_vvel_mean            =   5.3313426880579E-09
(PID.TID 0000.0001) %MON dynstat_vvel_sd              =   1.5247581525100E-02
(PID.TID 0000.0001) %MON dynstat_vvel_del2            =   7.6349664651762E-05
(PID.TID 0000.0001) %MON dynstat_wvel_max             =   1.2040152806512E-08
(PID.TID 0000.0001) %MON dynstat_wvel_min             =  -1.4282177738496E-08
(PID.TID 0000.0001) %MON dynstat_wvel_mean            =  -1.7338991003473E-21
(PID.TID 0000.0001) %MON dynstat_wvel_sd              =   5.8776261917407E-09
(PID.TID 0000.0001) %MON dynstat_wvel_del2            =   2.0238529485046E-12
(PID.TID 0000.0001) %MON dynstat_theta_max            =   2.0000000000000E+01
(PID.TID 0000.0001) %MON dynstat_theta_min            =   2.0000000000000E+01
(PID.TID 0000.0001) %MON dynstat_theta_mean           =   2.0000000000000E+01
(PID.TID 0000.0001) %MON dynstat_theta_sd             =   0.0000000000000E+00
(PID.TID 0000.0001) %MON dynstat_theta_del2           =   0.0000000000000E+00
(PID.TID 0000.0001) %MON dynstat_salt_max             =   3.0000000000000E+01
(PID.TID 0000.0001) %MON dynstat_salt_min             =   3.0000000000000E+01
(PID.TID 0000.0001) %MON dynstat_salt_mean            =   3.0000000000000E+01
(PID.TID 0000.0001) %MON dynstat_salt_sd              =   0.0000000000000E+00
(PID.TID 0000.0001) %MON dynstat_salt_del2            =   0.0000000000000E+00
(PID.TID 0000.0001) %MON trAdv_CFL_u_max              =   1.9480621926257E-03
(PID.TID 0000.0001) %MON trAdv_CFL_v_max              =   5.2069425283063E-03
(PID.TID 0000.0001) %MON trAdv_CFL_w_max              =   2.8891928163765E-09
(PID.TID 0000.0001) %MON advcfl_uvel_max              =   1.9479620373365E-03
(PID.TID 0000.0001) %MON advcfl_vvel_max              =   5.2066689985531E-03
(PID.TID 0000.0001) %MON advcfl_wvel_max              =   6.8554453144781E-09
(PID.TID 0000.0001) %MON advcfl_W_hf_max              =   0.0000000000000E+00
(PID.TID 0000.0001) %MON pe_b_mean                    =   2.7880557282683E-07
(PID.TID 0000.0001) %MON ke_max                       =   3.7648689385508E-03
(PID.TID 0000.0001) %MON ke_mean                      =   1.3188882205357E-04
(PID.TID 0000.0001) %MON ke_vol                       =   7.2000000000000E+15
(PID.TID 0000.0001) %MON vort_r_min                   =  -1.4965062302178E-06
(PID.TID 0000.0001) %MON vort_r_max                   =   2.3705436435440E-06
(PID.TID 0000.0001) %MON vort_a_mean                  =   1.0600000000000E-04
(PID.TID 0000.0001) %MON vort_a_sd                    =   3.5376385005793E-06
(PID.TID 0000.0001) %MON vort_p_mean                  =   1.1130000000000E-04
(PID.TID 0000.0001) %MON vort_p_sd                    =   4.1149302862901E-05
(PID.TID 0000.0001) %MON surfExpan_theta_mean         =  -3.4684117306622E-20
(PID.TID 0000.0001) %MON surfExpan_salt_mean          =  -5.2025781213969E-20
(PID.TID 0000.0001) // =======================================================
(PID.TID 0000.0001) // End MONITOR dynamic field statistics
(PID.TID 0000.0001) // =======================================================
 cg2d: Sum(rhs),rhsMax =  -5.07648567188686E-04  1.43021187991861E-01
 cg2d: Sum(rhs),rhsMax =  -5.08214906359875E-04  1.43013427936723E-01
 cg2d: Sum(rhs),rhsMax =  -5.08781788650233E-04  1.43005659857693E-01
 cg2d: Sum(rhs),rhsMax =  -5.09349210713484E-04  1.42997883776250E-01
 cg2d: Sum(rhs),rhsMax =  -5.09917169120551E-04  1.42990099713888E-01
 cg2d: Sum(rhs),rhsMax =  -5.10485660300410E-04  1.42982307692117E-01
 cg2d: Sum(rhs),rhsMax =  -5.11054680734975E-04  1.42974507732458E-01
 cg2d: Sum(rhs),rhsMax =  -5.11624226695782E-04  1.42966699856452E-01
 cg2d: Sum(rhs),rhsMax =  -5.12194294489244E-04  1.42958884085652E-01
 cg2d: Sum(rhs),rhsMax =  -5.12764880231531E-04  1.42951060441625E-01
 cg2d: Sum(rhs),rhsMax =  -5.13335979968075E-04  1.42943228945955E-01
 cg2d: Sum(rhs),rhsMax =  -5.13907589594207E-04  1.42935389620240E-01
 cg2d: Sum(rhs),rhsMax =  -5.14479705109460E-04  1.42927542486092E-01
 cg2d: Sum(rhs),rhsMax =  -5.15052322224971E-04  1.42919687565137E-01
 cg2d: Sum(rhs),rhsMax =  -5.15625436541174E-04  1.42911824879018E-01
 cg2d: Sum(rhs),rhsMax =  -5.16199043701965E-04  1.42903954449391E-01
 cg2d: Sum(rhs),rhsMax =  -5.16773139124793E-04  1.42896076297926E-01
 cg2d: Sum(rhs),rhsMax =  -5.17347718220281E-04  1.42888190446308E-01
 cg2d: Sum(rhs),rhsMax =  -5.17922776143804E-04  1.42880296916236E-01
 cg2d: Sum(rhs),rhsMax =  -5.18498308219782E-04  1.42872395729423E-01
 cg2d: Sum(rhs),rhsMax =  -5.19074309337623E-04  1.42864486907598E-01
 cg2d: Sum(rhs),rhsMax =  -5.19650774441768E-04  1.42856570472503E-01
 cg2d: Sum(rhs),rhsMax =  -5.20227698321216E-04  1.42848646445893E-01
 cg2d: Sum(rhs),rhsMax =  -5.20805075645018E-04  1.42840714849538E-01
 cg2d: Sum(rhs),rhsMax =  -5.21382901012791E-04  1.42832775705222E-01
 cg2d: Sum(rhs),rhsMax =  -5.21961168888333E-04  1.42824829034744E-01
 cg2d: Sum(rhs),rhsMax =  -5.22539873602023E-04  1.42816874859915E-01
 cg2d: Sum(rhs),rhsMax =  -5.23119009267575E-04  1.42808913202562E-01
 cg2d: Sum(rhs),rhsMax =  -5.23698569986335E-04  1.42800944084523E-01
 cg2d: Sum(rhs),rhsMax =  -5.24278549703949E-04  1.42792967527653E-01
 cg2d: Sum(rhs),rhsMax =  -5.24858942277124E-04  1.42784983553818E-01
 cg2d: Sum(rhs),rhsMax =  -5.25439741243904E-04  1.42776992184899E-01
 cg2d: Sum(rhs),rhsMax =  -5.26020940248626E-04  1.42768993442791E-01
 cg2d: Sum(rhs),rhsMax =  -5.26602532566009E-04  1.42760987349400E-01
 cg2d: Sum(rhs),rhsMax =  -5.27184511580279E-04  1.42752973926650E-01
 cg2d: Sum(rhs),rhsMax =  -5.27766870251718E-04  1.42744953196472E-01
 cg2d: Sum(rhs),rhsMax =  -5.28349601552921E-04  1.42736925180818E-01
 cg2d: Sum(rhs),rhsMax =  -5.28932698319798E-04  1.42728889901647E-01
 cg2d: Sum(rhs),rhsMax =  -5.29516153191016E-04  1.42720847380934E-01
 cg2d: Sum(rhs),rhsMax =  -5.30099958558149E-04  1.42712797640668E-01
 cg2d: Sum(rhs),rhsMax =  -5.30684106907634E-04  1.42704740702849E-01
 cg2d: Sum(rhs),rhsMax =  -5.31268590281801E-04  1.42696676589492E-01
 cg2d: Sum(rhs),rhsMax =  -5.31853400661707E-04  1.42688605322623E-01
 cg2d: Sum(rhs),rhsMax =  -5.32438529847913E-04  1.42680526924283E-01
 cg2d: Sum(rhs),rhsMax =  -5.33023969510542E-04  1.42672441416525E-01
 cg2d: Sum(rhs),rhsMax =  -5.33609711201897E-04  1.42664348821415E-01
 cg2d: Sum(rhs),rhsMax =  -5.34195746084106E-04  1.42656249161032E-01
 cg2d: Sum(rhs),rhsMax =  -5.34782065388522E-04  1.42648142457467E-01
 cg2d: Sum(rhs),rhsMax =  -5.35482106195974E-04  1.42640028758586E-01
 cg2d: Sum(rhs),rhsMax =  -5.36181991925218E-04  1.42631908015886E-01
 cg2d: Sum(rhs),rhsMax =  -5.36881749612672E-04  1.42623780309841E-01
 cg2d: Sum(rhs),rhsMax =  -5.37581367512723E-04  1.42615645650935E-01
 cg2d: Sum(rhs),rhsMax =  -5.38280839462189E-04  1.42607504058444E-01
 cg2d: Sum(rhs),rhsMax =  -5.38980151918346E-04  1.42599355554835E-01
 cg2d: Sum(rhs),rhsMax =  -5.39679287779609E-04  1.42591200163201E-01
 cg2d: Sum(rhs),rhsMax =  -5.40378229611341E-04  1.42583037905976E-01
 cg2d: Sum(rhs),rhsMax =  -5.41076961230088E-04  1.42574868805196E-01
 cg2d: Sum(rhs),rhsMax =  -5.41775467832076E-04  1.42566692882861E-01
 cg2d: Sum(rhs),rhsMax =  -5.42473735119561E-04  1.42558510161104E-01
 cg2d: Sum(rhs),rhsMax =  -5.43171748574498E-04  1.42550320662175E-01
 cg2d: Sum(rhs),rhsMax =  -5.43869493229024E-04  1.42542124408379E-01
 cg2d: Sum(rhs),rhsMax =  -5.44566953412807E-04  1.42533921422024E-01
 cg2d: Sum(rhs),rhsMax =  -5.45264113127149E-04  1.42525711725404E-01
 cg2d: Sum(rhs),rhsMax =  -5.45960955823046E-04  1.42517495340808E-01
 cg2d: Sum(rhs),rhsMax =  -5.46657464936580E-04  1.42509272290529E-01
 cg2d: Sum(rhs),rhsMax =  -5.47353623815823E-04  1.42501042596875E-01
 cg2d: Sum(rhs),rhsMax =  -5.48049415504267E-04  1.42492806282165E-01
 cg2d: Sum(rhs),rhsMax =  -5.48744822717659E-04  1.42484563368737E-01
 cg2d: Sum(rhs),rhsMax =  -5.49439827986062E-04  1.42476313878937E-01
 cg2d: Sum(rhs),rhsMax =  -5.50134413529153E-04  1.42468057835126E-01
 cg2d: Sum(rhs),rhsMax =  -5.50828561254192E-04  1.42459795259672E-01
 cg2d: Sum(rhs),rhsMax =  -5.51645223752422E-04  1.42451526321022E-01
(PID.TID 0000.0001)      cg2d_init_res =   1.01518506155087E-03
(PID.TID 0000.0001)      cg2d_iters(min,last) =      -1      72
(PID.TID 0000.0001)      cg2d_last_res =   9.90982101459847E-08
(PID.TID 0000.0001) // =======================================================
(PID.TID 0000.0001) // Begin MONITOR dynamic field statistics
(PID.TID 0000.0001) // =======================================================
(PID.TID 0000.0001) %MON time_tsnumber                =                 10728
(PID.TID 0000.0001) %MON time_secondsf                =   1.2873600000000E+07
(PID.TID 0000.0001) %MON dynstat_eta_max              =   5.4919670986049E-02
(PID.TID 0000.0001) %MON dynstat_eta_min              =  -1.6587833329916E-02
(PID.TID 0000.0001) %MON dynstat_eta_mean             =   3.9347151979824E-07
(PID.TID 0000.0001) %MON dynstat_eta_sd               =   1.6491709886008E-02
(PID.TID 0000.0001) %MON dynstat_eta_del2             =   1.8336124885832E-05
(PID.TID 0000.0001) %MON dynstat_uvel_max             =   3.2340400075231E-02
(PID.TID 0000.0001) %MON dynstat_uvel_min             =  -1.5094536424767E-02
(PID.TID 0000.0001) %MON dynstat_uvel_mean            =   2.7332032240696E-07
(PID.TID 0000.0001) %MON dynstat_uvel_sd              =   5.8919593430871E-03
(PID.TID 0000.0001) %MON dynstat_uvel_del2            =   8.0038567559369E-06
(PID.TID 0000.0001) %MON dynstat_vvel_max             =   8.6451365930318E-02
(PID.TID 0000.0001) %MON dynstat_vvel_min             =  -3.3046453947866E-02
(PID.TID 0000.0001) %MON dynstat_vvel_mean            =   3.8426607041212E-09
(PID.TID 0000.0001) %MON dynstat_vvel_sd              =   1.5167998241536E-02
(PID.TID 0000.0001) %MON dynstat_vvel_del2            =   7.6176050453395E-05
(PID.TID 0000.0001) %MON dynstat_wvel_max             =   1.2247105177958E-08
(PID.TID 0000.0001) %MON dynstat_wvel_min             =  -1.4116443722742E-08
(PID.TID 0000.0001) %MON dynstat_wvel_mean            =  -4.0699963695564E-21
(PID.TID 0000.0001) %MON dynstat_wvel_sd              =   5.8438418252863E-09
(PID.TID 0000.0001) %MON dynstat_wvel_del2            =   2.0274289814918E-12
(PID.TID 0000.0001) %MON dynstat_theta_max            =   2.0000000000000E+01
(PID.TID 0000.0001) %MON dynstat_theta_min            =   2.0000000000000E+01
(PID.TID 0000.0001) %MON dynstat_theta_mean           =   2.0000000000000E+01
(PID.TID 0000.0001) %MON dynstat_theta_sd             =   0.0000000000000E+00
(PID.TID 0000.0001) %MON dynstat_theta_del2           =   0.0000000000000E+00
(PID.TID 0000.0001) %MON dynstat_salt_max             =   3.0000000000000E+01
(PID.TID 0000.0001) %MON dynstat_salt_min             =   3.0000000000000E+01
(PID.TID 0000.0001) %MON dynstat_salt_mean            =   3.0000000000000E+01
(PID.TID 0000.0001) %MON dynstat_salt_sd              =   0.0000000000000E+00
(PID.TID 0000.0001) %MON dynstat_salt_del2            =   0.0000000000000E+00
(PID.TID 0000.0001) %MON trAdv_CFL_u_max              =   1.9405329218366E-03
(PID.TID 0000.0001) %MON trAdv_CFL_v_max              =   5.1873582438765E-03
(PID.TID 0000.0001) %MON trAdv_CFL_w_max              =   2.9387819173280E-09
(PID.TID 0000.0001) %MON advcfl_uvel_max              =   1.9404240045139E-03
(PID.TID 0000.0001) %MON advcfl_vvel_max              =   5.1870819558191E-03
(PID.TID 0000.0001) %MON advcfl_wvel_max              =   6.7758929869160E-09
(PID.TID 0000.0001) %MON advcfl_W_hf_max              =   0.0000000000000E+00
(PID.TID 0000.0001) %MON pe_b_mean                    =   2.6680894171182E-07
(PID.TID 0000.0001) %MON ke_max                       =   3.7362306586660E-03
(PID.TID 0000.0001) %MON ke_mean                      =   1.3018514985168E-04
(PID.TID 0000.0001) %MON ke_vol                       =   7.2000000000000E+15
(PID.TID 0000.0001) %MON vort_r_min                   =  -1.4998862531883E-06
(PID.TID 0000.0001) %MON vort_r_max                   =   2.3594257950157E-06
(PID.TID 0000.0001) %MON vort_a_mean                  =   1.0600000000000E-04
(PID.TID 0000.0001) %MON vort_a_sd                    =   3.5375217178766E-06
(PID.TID 0000.0001) %MON vort_p_mean                  =   1.1130000000000E-04
(PID.TID 0000.0001) %MON vort_p_sd                    =   4.1149251080886E-05
(PID.TID 0000.0001) %MON surfExpan_theta_mean         =  -8.1399616676710E-20
(PID.TID 0000.0001) %MON surfExpan_salt_mean          =  -1.2209863613993E-19
(PID.TID 0000.0001) // =======================================================
(PID.TID 0000.0001) // End MONITOR dynamic field statistics
(PID.TID 0000.0001) // =======================================================
 cg2d: Sum(rhs),rhsMax =  -5.52460741709230E-04  1.42443250742958E-01
 cg2d: Sum(rhs),rhsMax =  -5.53275065836978E-04  1.42434968697602E-01
 cg2d: Sum(rhs),rhsMax =  -5.54088202815862E-04  1.42426680214706E-01
 cg2d: Sum(rhs),rhsMax =  -5.54900139083365E-04  1.42418385311241E-01
 cg2d: Sum(rhs),rhsMax =  -5.55710851790664E-04  1.42410084010133E-01
 cg2d: Sum(rhs),rhsMax =  -5.56520313253875E-04  1.42401776334824E-01
 cg2d: Sum(rhs),rhsMax =  -5.57328494980702E-04  1.42393462307900E-01
 cg2d: Sum(rhs),rhsMax =  -5.58135370260621E-04  1.42385141951480E-01
 cg2d: Sum(rhs),rhsMax =  -5.58940914224788E-04  1.42376815287712E-01
 cg2d: Sum(rhs),rhsMax =  -5.59745102751652E-04  1.42368482338965E-01
 cg2d: Sum(rhs),rhsMax =  -5.60547911524660E-04  1.42360143127781E-01
 cg2d: Sum(rhs),rhsMax =  -5.61588588587774E-04  1.42351797802411E-01
 cg2d: Sum(rhs),rhsMax =  -5.62626075938095E-04  1.42343446138646E-01
 cg2d: Sum(rhs),rhsMax =  -5.63660333222859E-04  1.42335088256911E-01
 cg2d: Sum(rhs),rhsMax =  -5.64691358369540E-04  1.42326724211993E-01
 cg2d: Sum(rhs),rhsMax =  -5.65719130293362E-04  1.42318354016610E-01
 cg2d: Sum(rhs),rhsMax =  -5.66743620454851E-04  1.42309977694173E-01
 cg2d: Sum(rhs),rhsMax =  -5.67764795474507E-04  1.42301595269081E-01
 cg2d: Sum(rhs),rhsMax =  -5.68782621032864E-04  1.42293206763782E-01
 cg2d: Sum(rhs),rhsMax =  -5.69797064261279E-04  1.42284812199858E-01
 cg2d: Sum(rhs),rhsMax =  -5.70808094148792E-04  1.42276411599089E-01
 cg2d: Sum(rhs),rhsMax =  -5.71815680772077E-04  1.42268004983822E-01
 cg2d: Sum(rhs),rhsMax =  -5.72819793877723E-04  1.42259592376826E-01
 cg2d: Sum(rhs),rhsMax =  -5.73820402539164E-04  1.42251173801013E-01
 cg2d: Sum(rhs),rhsMax =  -5.74817474902456E-04  1.42242749279235E-01
 cg2d: Sum(rhs),rhsMax =  -5.75810978749900E-04  1.42234318834224E-01
 cg2d: Sum(rhs),rhsMax =  -5.76800881258045E-04  1.42225882488621E-01
 cg2d: Sum(rhs),rhsMax =  -5.77787149593538E-04  1.42217440265049E-01
 cg2d: Sum(rhs),rhsMax =  -5.78769750692035E-04  1.42208992186153E-01
 cg2d: Sum(rhs),rhsMax =  -5.79748651133400E-04  1.42200538274617E-01
 cg2d: Sum(rhs),rhsMax =  -5.80723817296984E-04  1.42192078553158E-01
 cg2d: Sum(rhs),rhsMax =  -5.81695215187648E-04  1.42183613044508E-01
 cg2d: Sum(rhs),rhsMax =  -5.82662810471482E-04  1.42175141771407E-01
 cg2d: Sum(rhs),rhsMax =  -5.83626568455736E-04  1.42166664756596E-01
 cg2d: Sum(rhs),rhsMax =  -5.84586454058920E-04  1.42158182022822E-01
 cg2d: Sum(rhs),rhsMax =  -5.85542432059305E-04  1.42149693592840E-01
 cg2d: Sum(rhs),rhsMax =  -5.86494466732862E-04  1.42141199489415E-01
 cg2d: Sum(rhs),rhsMax =  -5.87442522051644E-04  1.42132699735327E-01
 cg2d: Sum(rhs),rhsMax =  -5.88386561779701E-04  1.42124194353362E-01
 cg2d: Sum(rhs),rhsMax =  -5.89326549239545E-04  1.42115683366319E-01
 cg2d: Sum(rhs),rhsMax =  -5.90351376955249E-04  1.42107166920759E-01
 cg2d: Sum(rhs),rhsMax =  -5.91371199014607E-04  1.42098644792755E-01
 cg2d: Sum(rhs),rhsMax =  -5.92386093860502E-04  1.42090117121493E-01
 cg2d: Sum(rhs),rhsMax =  -5.93395975537970E-04  1.42081583938123E-01
 cg2d: Sum(rhs),rhsMax =  -5.94400805153457E-04  1.42073045263660E-01
 cg2d: Sum(rhs),rhsMax =  -5.95400543915284E-04  1.42064501121662E-01
 cg2d: Sum(rhs),rhsMax =  -5.96395153984107E-04  1.42055951535635E-01
 cg2d: Sum(rhs),rhsMax =  -5.97384596726147E-04  1.42047396528098E-01
 cg2d: Sum(rhs),rhsMax =  -5.98368832548452E-04  1.42038836121329E-01
 cg2d: Sum(rhs),rhsMax =  -5.99347821191472E-04  1.42030270337769E-01
 cg2d: Sum(rhs),rhsMax =  -6.00321521905732E-04  1.42021699200183E-01
 cg2d: Sum(rhs),rhsMax =  -6.01289893512181E-04  1.42013122731567E-01
 cg2d: Sum(rhs),rhsMax =  -6.02252894820225E-04  1.42004540954994E-01
 cg2d: Sum(rhs),rhsMax =  -6.03298861251740E-04  1.41995954082001E-01
 cg2d: Sum(rhs),rhsMax =  -6.04338602307314E-04  1.41987361763559E-01
 cg2d: Sum(rhs),rhsMax =  -6.05371962703128E-04  1.41978764195376E-01
 cg2d: Sum(rhs),rhsMax =  -6.06398909256893E-04  1.41970161409725E-01
 cg2d: Sum(rhs),rhsMax =  -6.07419392654394E-04  1.41961553430312E-01
 cg2d: Sum(rhs),rhsMax =  -6.08433370416909E-04  1.41952940281829E-01
 cg2d: Sum(rhs),rhsMax =  -6.09440803079931E-04  1.41944321987630E-01
 cg2d: Sum(rhs),rhsMax =  -6.10441650119225E-04  1.41935698570168E-01
 cg2d: Sum(rhs),rhsMax =  -6.11435868589518E-04  1.41927070051681E-01
 cg2d: Sum(rhs),rhsMax =  -6.12423413620057E-04  1.41918436454657E-01
 cg2d: Sum(rhs),rhsMax =  -6.13404239429914E-04  1.41909797801967E-01
 cg2d: Sum(rhs),rhsMax =  -6.14378299876994E-04  1.41901154116748E-01
 cg2d: Sum(rhs),rhsMax =  -6.15345548904921E-04  1.41892505422221E-01
 cg2d: Sum(rhs),rhsMax =  -6.16305940876550E-04  1.41883851741546E-01
 cg2d: Sum(rhs),rhsMax =  -6.17259429828141E-04  1.41875193097796E-01
 cg2d: Sum(rhs),rhsMax =  -6.18205969920099E-04  1.41866529513977E-01
 cg2d: Sum(rhs),rhsMax =  -6.19145514795818E-04  1.41857861013088E-01
 cg2d: Sum(rhs),rhsMax =  -6.20078017768572E-04  1.41849187618145E-01
 cg2d: Sum(rhs),rhsMax =  -6.21003431972758E-04  1.41840509352203E-01
(PID.TID 0000.0001)      cg2d_init_res =   1.01450514761739E-03
(PID.TID 0000.0001)      cg2d_iters(min,last) =      -1      68
(PID.TID 0000.0001)      cg2d_last_res =   9.01832297489892E-08
(PID.TID 0000.0001) // =======================================================
(PID.TID 0000.0001) // Begin MONITOR dynamic field statistics
(PID.TID 0000.0001) // =======================================================
(PID.TID 0000.0001) %MON time_tsnumber                =                 10800
(PID.TID 0000.0001) %MON time_secondsf                =   1.2960000000000E+07
(PID.TID 0000.0001) %MON dynstat_eta_max              =   5.4513024862329E-02
(PID.TID 0000.0001) %MON dynstat_eta_min              =  -1.6490056411406E-02
(PID.TID 0000.0001) %MON dynstat_eta_mean             =   4.4104145967226E-07
(PID.TID 0000.0001) %MON dynstat_eta_sd               =   1.6128872909026E-02
(PID.TID 0000.0001) %MON dynstat_eta_del2             =   1.8319802352398E-05
(PID.TID 0000.0001) %MON dynstat_uvel_max             =   3.2204982971276E-02
(PID.TID 0000.0001) %MON dynstat_uvel_min             =  -1.4922840578334E-02
(PID.TID 0000.0001) %MON dynstat_uvel_mean            =   2.7685556595396E-07
(PID.TID 0000.0001) %MON dynstat_uvel_sd              =   5.8117994166271E-03
(PID.TID 0000.0001) %MON dynstat_uvel_del2            =   7.9588607309720E-06
(PID.TID 0000.0001) %MON dynstat_vvel_max             =   8.6107310773556E-02
(PID.TID 0000.0001) %MON dynstat_vvel_min             =  -3.3222842173165E-02
(PID.TID 0000.0001) %MON dynstat_vvel_mean            =   2.3133404388549E-09
(PID.TID 0000.0001) %MON dynstat_vvel_sd              =   1.5085248760990E-02
(PID.TID 0000.0001) %MON dynstat_vvel_del2            =   7.5982051326320E-05
(PID.TID 0000.0001) %MON dynstat_wvel_max             =   1.2344473437624E-08
(PID.TID 0000.0001) %MON dynstat_wvel_min             =  -1.3862090718176E-08
(PID.TID 0000.0001) %MON dynstat_wvel_mean            =   4.4467318123983E-22
(PID.TID 0000.0001) %MON dynstat_wvel_sd              =   5.8070079010777E-09
(PID.TID 0000.0001) %MON dynstat_wvel_del2            =   2.0300982073533E-12
(PID.TID 0000.0001) %MON dynstat_theta_max            =   2.0000000000000E+01
(PID.TID 0000.0001) %MON dynstat_theta_min            =   2.0000000000000E+01
(PID.TID 0000.0001) %MON dynstat_theta_mean           =   2.0000000000000E+01
(PID.TID 0000.0001) %MON dynstat_theta_sd             =   0.0000000000000E+00
(PID.TID 0000.0001) %MON dynstat_theta_del2           =   0.0000000000000E+00
(PID.TID 0000.0001) %MON dynstat_salt_max             =   3.0000000000000E+01
(PID.TID 0000.0001) %MON dynstat_salt_min             =   3.0000000000000E+01
(PID.TID 0000.0001) %MON dynstat_salt_mean            =   3.0000000000000E+01
(PID.TID 0000.0001) %MON dynstat_salt_sd              =   0.0000000000000E+00
(PID.TID 0000.0001) %MON dynstat_salt_del2            =   0.0000000000000E+00
(PID.TID 0000.0001) %MON trAdv_CFL_u_max              =   1.9324154418316E-03
(PID.TID 0000.0001) %MON trAdv_CFL_v_max              =   5.1667348258741E-03
(PID.TID 0000.0001) %MON trAdv_CFL_w_max              =   2.9621313740441E-09
(PID.TID 0000.0001) %MON advcfl_uvel_max              =   1.9322989782766E-03
(PID.TID 0000.0001) %MON advcfl_vvel_max              =   5.1664386464134E-03
(PID.TID 0000.0001) %MON advcfl_wvel_max              =   6.6538035447244E-09
(PID.TID 0000.0001) %MON advcfl_W_hf_max              =   0.0000000000000E+00
(PID.TID 0000.0001) %MON pe_b_mean                    =   2.5519787122134E-07
(PID.TID 0000.0001) %MON ke_max                       =   3.7054285847199E-03
(PID.TID 0000.0001) %MON ke_mean                      =   1.2849302350239E-04
(PID.TID 0000.0001) %MON ke_vol                       =   7.2000000000000E+15
(PID.TID 0000.0001) %MON vort_r_min                   =  -1.5027981187752E-06
(PID.TID 0000.0001) %MON vort_r_max                   =   2.3478842922067E-06
(PID.TID 0000.0001) %MON vort_a_mean                  =   1.0600000000000E-04
(PID.TID 0000.0001) %MON vort_a_sd                    =   3.5373975772488E-06
(PID.TID 0000.0001) %MON vort_p_mean                  =   1.1130000000000E-04
(PID.TID 0000.0001) %MON vort_p_sd                    =   4.1149217454058E-05
(PID.TID 0000.0001) %MON surfExpan_theta_mean         =   8.8922061072496E-21
(PID.TID 0000.0001) %MON surfExpan_salt_mean          =   1.3338150954093E-20
(PID.TID 0000.0001) // =======================================================
(PID.TID 0000.0001) // End MONITOR dynamic field statistics
(PID.TID 0000.0001) // =======================================================
 cg2d: Sum(rhs),rhsMax =  -6.21921710177242E-04  1.41831826238339E-01
 cg2d: Sum(rhs),rhsMax =  -6.22832805235818E-04  1.41823138299643E-01
 cg2d: Sum(rhs),rhsMax =  -6.23736669420602E-04  1.41814445559213E-01
 cg2d: Sum(rhs),rhsMax =  -6.24633255199885E-04  1.41805748040145E-01
 cg2d: Sum(rhs),rhsMax =  -6.25522514583747E-04  1.41797045765536E-01
 cg2d: Sum(rhs),rhsMax =  -6.26404399548411E-04  1.41788338758491E-01
 cg2d: Sum(rhs),rhsMax =  -6.27278861906198E-04  1.41779627042122E-01
 cg2d: Sum(rhs),rhsMax =  -6.28145853244635E-04  1.41770910639549E-01
 cg2d: Sum(rhs),rhsMax =  -6.29005324999218E-04  1.41762189573900E-01
 cg2d: Sum(rhs),rhsMax =  -6.29857228385581E-04  1.41753463868310E-01
 cg2d: Sum(rhs),rhsMax =  -6.30701514699710E-04  1.41744733545924E-01
 cg2d: Sum(rhs),rhsMax =  -6.31538134908135E-04  1.41735998629891E-01
 cg2d: Sum(rhs),rhsMax =  -6.32367039865839E-04  1.41727259143364E-01
 cg2d: Sum(rhs),rhsMax =  -6.33188180400769E-04  1.41718515109507E-01
 cg2d: Sum(rhs),rhsMax =  -6.34077503325140E-04  1.41709766367211E-01
 cg2d: Sum(rhs),rhsMax =  -6.34957885079911E-04  1.41701013313610E-01
 cg2d: Sum(rhs),rhsMax =  -6.35829246689734E-04  1.41692255777789E-01
 cg2d: Sum(rhs),rhsMax =  -6.36691493998172E-04  1.41683493779164E-01
 cg2d: Sum(rhs),rhsMax =  -6.37544567334088E-04  1.41674727348296E-01
 cg2d: Sum(rhs),rhsMax =  -6.38388422862955E-04  1.41665956511020E-01
 cg2d: Sum(rhs),rhsMax =  -6.39223022240500E-04  1.41657181290836E-01
 cg2d: Sum(rhs),rhsMax =  -6.40128907183264E-04  1.41648401408470E-01
 cg2d: Sum(rhs),rhsMax =  -6.41024172312160E-04  1.41639617493259E-01
 cg2d: Sum(rhs),rhsMax =  -6.41908653280675E-04  1.41630829262860E-01
 cg2d: Sum(rhs),rhsMax =  -6.42782272450311E-04  1.41622036727607E-01
 cg2d: Sum(rhs),rhsMax =  -6.43644971970335E-04  1.41613239921939E-01
 cg2d: Sum(rhs),rhsMax =  -6.44496716298046E-04  1.41604438873013E-01
 cg2d: Sum(rhs),rhsMax =  -6.45337477190000E-04  1.41595633604448E-01
 cg2d: Sum(rhs),rhsMax =  -6.46380480660663E-04  1.41586824503050E-01
 cg2d: Sum(rhs),rhsMax =  -6.47408564634602E-04  1.41578010918414E-01
 cg2d: Sum(rhs),rhsMax =  -6.48421521805692E-04  1.41569193122236E-01
 cg2d: Sum(rhs),rhsMax =  -6.49419214188767E-04  1.41560371177777E-01
 cg2d: Sum(rhs),rhsMax =  -6.50401597893955E-04  1.41551545125346E-01
 cg2d: Sum(rhs),rhsMax =  -6.51368680175176E-04  1.41542714997722E-01
 cg2d: Sum(rhs),rhsMax =  -6.52320479284946E-04  1.41533880819084E-01
 cg2d: Sum(rhs),rhsMax =  -6.53257004703737E-04  1.41525042609498E-01
 cg2d: Sum(rhs),rhsMax =  -6.54178253857160E-04  1.41516200388382E-01
 cg2d: Sum(rhs),rhsMax =  -6.55084215947429E-04  1.41507354176525E-01
 cg2d: Sum(rhs),rhsMax =  -6.55974877049112E-04  1.41498503996619E-01
 cg2d: Sum(rhs),rhsMax =  -6.56850224494018E-04  1.41489649872661E-01
 cg2d: Sum(rhs),rhsMax =  -6.57710248028778E-04  1.41480791829005E-01
 cg2d: Sum(rhs),rhsMax =  -6.58554940001253E-04  1.41471929889678E-01
 cg2d: Sum(rhs),rhsMax =  -6.59384294640924E-04  1.41463064078193E-01
 cg2d: Sum(rhs),rhsMax =  -6.60198306960001E-04  1.41454194417713E-01
 cg2d: Sum(rhs),rhsMax =  -6.60996972063262E-04  1.41445320931300E-01
 cg2d: Sum(rhs),rhsMax =  -6.61780285436162E-04  1.41436443642110E-01
 cg2d: Sum(rhs),rhsMax =  -6.62548242709986E-04  1.41427562573433E-01
 cg2d: Sum(rhs),rhsMax =  -6.63300840349988E-04  1.41418677748667E-01
 cg2d: Sum(rhs),rhsMax =  -6.64038075694333E-04  1.41409789191246E-01
 cg2d: Sum(rhs),rhsMax =  -6.64759946992425E-04  1.41400896924592E-01
 cg2d: Sum(rhs),rhsMax =  -6.65466453714899E-04  1.41392000972093E-01
 cg2d: Sum(rhs),rhsMax =  -6.66157595966242E-04  1.41383101357122E-01
 cg2d: Sum(rhs),rhsMax =  -6.66833375227905E-04  1.41374198103037E-01
 cg2d: Sum(rhs),rhsMax =  -6.67493793638684E-04  1.41365291233207E-01
 cg2d: Sum(rhs),rhsMax =  -6.68138854722799E-04  1.41356380771011E-01
 cg2d: Sum(rhs),rhsMax =  -6.68768562916206E-04  1.41347466739842E-01
 cg2d: Sum(rhs),rhsMax =  -6.69382924078142E-04  1.41338549163098E-01
 cg2d: Sum(rhs),rhsMax =  -6.69981945351716E-04  1.41329628064182E-01
 cg2d: Sum(rhs),rhsMax =  -6.70565635304584E-04  1.41320703466502E-01
 cg2d: Sum(rhs),rhsMax =  -6.71134003789446E-04  1.41311775393467E-01
 cg2d: Sum(rhs),rhsMax =  -6.71687062447462E-04  1.41302843868489E-01
 cg2d: Sum(rhs),rhsMax =  -6.72224824214073E-04  1.41293908914985E-01
 cg2d: Sum(rhs),rhsMax =  -6.72747303965333E-04  1.41284970556374E-01
 cg2d: Sum(rhs),rhsMax =  -6.73254518254928E-04  1.41276028816081E-01
 cg2d: Sum(rhs),rhsMax =  -6.73746485326317E-04  1.41267083717534E-01
 cg2d: Sum(rhs),rhsMax =  -6.74223225673068E-04  1.41258135284163E-01
 cg2d: Sum(rhs),rhsMax =  -6.74684761552274E-04  1.41249183539404E-01
 cg2d: Sum(rhs),rhsMax =  -6.75131117616177E-04  1.41240228506694E-01
 cg2d: Sum(rhs),rhsMax =  -6.75562320407623E-04  1.41231270209477E-01
 cg2d: Sum(rhs),rhsMax =  -6.75978398901081E-04  1.41222308671196E-01
 cg2d: Sum(rhs),rhsMax =  -6.76379384473604E-04  1.41213343915303E-01
 cg2d: Sum(rhs),rhsMax =  -6.76765310903008E-04  1.41204375965246E-01
(PID.TID 0000.0001)      cg2d_init_res =   1.01252414638294E-03
(PID.TID 0000.0001)      cg2d_iters(min,last) =      -1      62
(PID.TID 0000.0001)      cg2d_last_res =   8.66165151504975E-08
(PID.TID 0000.0001) // =======================================================
(PID.TID 0000.0001) // Begin MONITOR dynamic field statistics
(PID.TID 0000.0001) // =======================================================
(PID.TID 0000.0001) %MON time_tsnumber                =                 10872
(PID.TID 0000.0001) %MON time_secondsf                =   1.3046400000000E+07
(PID.TID 0000.0001) %MON dynstat_eta_max              =   5.4088232676133E-02
(PID.TID 0000.0001) %MON dynstat_eta_min              =  -1.6441625758414E-02
(PID.TID 0000.0001) %MON dynstat_eta_mean             =   4.7804260971951E-07
(PID.TID 0000.0001) %MON dynstat_eta_sd               =   1.5774304288757E-02
(PID.TID 0000.0001) %MON dynstat_eta_del2             =   1.8299044060445E-05
(PID.TID 0000.0001) %MON dynstat_uvel_max             =   3.2061289738905E-02
(PID.TID 0000.0001) %MON dynstat_uvel_min             =  -1.4764356763995E-02
(PID.TID 0000.0001) %MON dynstat_uvel_mean            =   2.7707615793360E-07
(PID.TID 0000.0001) %MON dynstat_uvel_sd              =   5.7404985068794E-03
(PID.TID 0000.0001) %MON dynstat_uvel_del2            =   7.9143875884970E-06
(PID.TID 0000.0001) %MON dynstat_vvel_max             =   8.5741908803720E-02
(PID.TID 0000.0001) %MON dynstat_vvel_min             =  -3.3377777209627E-02
(PID.TID 0000.0001) %MON dynstat_vvel_mean            =   7.6009427904403E-10
(PID.TID 0000.0001) %MON dynstat_vvel_sd              =   1.5000178714180E-02
(PID.TID 0000.0001) %MON dynstat_vvel_del2            =   7.5769611657043E-05
(PID.TID 0000.0001) %MON dynstat_wvel_max             =   1.2432268662669E-08
(PID.TID 0000.0001) %MON dynstat_wvel_min             =  -1.3587549151562E-08
(PID.TID 0000.0001) %MON dynstat_wvel_mean            =   1.5990802795487E-21
(PID.TID 0000.0001) %MON dynstat_wvel_sd              =   5.7675741224548E-09
(PID.TID 0000.0001) %MON dynstat_wvel_del2            =   2.0246389973075E-12
(PID.TID 0000.0001) %MON dynstat_theta_max            =   2.0000000000000E+01
(PID.TID 0000.0001) %MON dynstat_theta_min            =   2.0000000000000E+01
(PID.TID 0000.0001) %MON dynstat_theta_mean           =   2.0000000000000E+01
(PID.TID 0000.0001) %MON dynstat_theta_sd             =   0.0000000000000E+00
(PID.TID 0000.0001) %MON dynstat_theta_del2           =   0.0000000000000E+00
(PID.TID 0000.0001) %MON dynstat_salt_max             =   3.0000000000000E+01
(PID.TID 0000.0001) %MON dynstat_salt_min             =   3.0000000000000E+01
(PID.TID 0000.0001) %MON dynstat_salt_mean            =   3.0000000000000E+01
(PID.TID 0000.0001) %MON dynstat_salt_sd              =   0.0000000000000E+00
(PID.TID 0000.0001) %MON dynstat_salt_del2            =   0.0000000000000E+00
(PID.TID 0000.0001) %MON trAdv_CFL_u_max              =   1.9238001014946E-03
(PID.TID 0000.0001) %MON trAdv_CFL_v_max              =   5.1448264256574E-03
(PID.TID 0000.0001) %MON trAdv_CFL_w_max              =   2.9836838028801E-09
(PID.TID 0000.0001) %MON advcfl_uvel_max              =   1.9236773843343E-03
(PID.TID 0000.0001) %MON advcfl_vvel_max              =   5.1445145282232E-03
(PID.TID 0000.0001) %MON advcfl_wvel_max              =   6.5220235927496E-09
(PID.TID 0000.0001) %MON advcfl_W_hf_max              =   0.0000000000000E+00
(PID.TID 0000.0001) %MON pe_b_mean                    =   2.4410093117838E-07
(PID.TID 0000.0001) %MON ke_max                       =   3.6729169026265E-03
(PID.TID 0000.0001) %MON ke_mean                      =   1.2682968661545E-04
(PID.TID 0000.0001) %MON ke_vol                       =   7.2000000000000E+15
(PID.TID 0000.0001) %MON vort_r_min                   =  -1.5052357649858E-06
(PID.TID 0000.0001) %MON vort_r_max                   =   2.3360742304511E-06
(PID.TID 0000.0001) %MON vort_a_mean                  =   1.0600000000000E-04
(PID.TID 0000.0001) %MON vort_a_sd                    =   3.5372673937128E-06
(PID.TID 0000.0001) %MON vort_p_mean                  =   1.1130000000000E-04
(PID.TID 0000.0001) %MON vort_p_sd                    =   4.1149202276956E-05
(PID.TID 0000.0001) %MON surfExpan_theta_mean         =   3.1979752179723E-20
(PID.TID 0000.0001) %MON surfExpan_salt_mean          =   4.7968976938743E-20
(PID.TID 0000.0001) // =======================================================
(PID.TID 0000.0001) // End MONITOR dynamic field statistics
(PID.TID 0000.0001) // =======================================================
 cg2d: Sum(rhs),rhsMax =  -6.77136214516856E-04  1.41195404844483E-01
 cg2d: Sum(rhs),rhsMax =  -6.77492134242299E-04  1.41186430576472E-01
 cg2d: Sum(rhs),rhsMax =  -6.77833111728313E-04  1.41177453184672E-01
 cg2d: Sum(rhs),rhsMax =  -6.78159191269703E-04  1.41168472692549E-01
 cg2d: Sum(rhs),rhsMax =  -6.78470419795408E-04  1.41159489123570E-01
 cg2d: Sum(rhs),rhsMax =  -6.78766847316861E-04  1.41150502501204E-01
 cg2d: Sum(rhs),rhsMax =  -6.79048526414177E-04  1.41141512848922E-01
 cg2d: Sum(rhs),rhsMax =  -6.79315512549251E-04  1.41132520190200E-01
 cg2d: Sum(rhs),rhsMax =  -6.79567863810028E-04  1.41123524548517E-01
 cg2d: Sum(rhs),rhsMax =  -6.79805641048809E-04  1.41114525947350E-01
 cg2d: Sum(rhs),rhsMax =  -6.80028907755399E-04  1.41105524410183E-01
 cg2d: Sum(rhs),rhsMax =  -6.80237729870420E-04  1.41096519960500E-01
 cg2d: Sum(rhs),rhsMax =  -6.80432175581522E-04  1.41087512621789E-01
 cg2d: Sum(rhs),rhsMax =  -6.80612315354794E-04  1.41078502417536E-01
 cg2d: Sum(rhs),rhsMax =  -6.80778221373298E-04  1.41069489371235E-01
 cg2d: Sum(rhs),rhsMax =  -6.80929967416236E-04  1.41060473506376E-01
 cg2d: Sum(rhs),rhsMax =  -6.81067628798158E-04  1.41051454846456E-01
 cg2d: Sum(rhs),rhsMax =  -6.81191281498890E-04  1.41042433414971E-01
 cg2d: Sum(rhs),rhsMax =  -6.81301002037400E-04  1.41033409235418E-01
 cg2d: Sum(rhs),rhsMax =  -6.81396866920989E-04  1.41024382331299E-01
 cg2d: Sum(rhs),rhsMax =  -6.81478952235534E-04  1.41015352726115E-01
 cg2d: Sum(rhs),rhsMax =  -6.81547332943501E-04  1.41006320443368E-01
 cg2d: Sum(rhs),rhsMax =  -6.81602082238258E-04  1.40997285506564E-01
 cg2d: Sum(rhs),rhsMax =  -6.81643271085277E-04  1.40988247939209E-01
 cg2d: Sum(rhs),rhsMax =  -6.81670967514506E-04  1.40979207764812E-01
 cg2d: Sum(rhs),rhsMax =  -6.81685235772124E-04  1.40970165006881E-01
 cg2d: Sum(rhs),rhsMax =  -6.81686135855406E-04  1.40961119688926E-01
 cg2d: Sum(rhs),rhsMax =  -6.81673722597980E-04  1.40952071834461E-01
 cg2d: Sum(rhs),rhsMax =  -6.81648045187997E-04  1.40943021466999E-01
 cg2d: Sum(rhs),rhsMax =  -6.81609146525232E-04  1.40933968610055E-01
 cg2d: Sum(rhs),rhsMax =  -6.81557062232484E-04  1.40924913287144E-01
 cg2d: Sum(rhs),rhsMax =  -6.81491820620509E-04  1.40915855521787E-01
 cg2d: Sum(rhs),rhsMax =  -6.81413441924609E-04  1.40906795337502E-01
 cg2d: Sum(rhs),rhsMax =  -6.81321937870101E-04  1.40897732757809E-01
 cg2d: Sum(rhs),rhsMax =  -6.81217311634882E-04  1.40888667806233E-01
 cg2d: Sum(rhs),rhsMax =  -6.81099557199257E-04  1.40879600506297E-01
 cg2d: Sum(rhs),rhsMax =  -6.80968659771857E-04  1.40870530881526E-01
 cg2d: Sum(rhs),rhsMax =  -6.80824595309816E-04  1.40861458955451E-01
 cg2d: Sum(rhs),rhsMax =  -6.80667330941003E-04  1.40852384751599E-01
 cg2d: Sum(rhs),rhsMax =  -6.80496825207119E-04  1.40843308293502E-01
 cg2d: Sum(rhs),rhsMax =  -6.80313028253910E-04  1.40834229604694E-01
 cg2d: Sum(rhs),rhsMax =  -6.80115882428401E-04  1.40825148708709E-01
 cg2d: Sum(rhs),rhsMax =  -6.79905322622032E-04  1.40816065629085E-01
 cg2d: Sum(rhs),rhsMax =  -6.79681277290687E-04  1.40806980389360E-01
 cg2d: Sum(rhs),rhsMax =  -6.79443668680603E-04  1.40797893013075E-01
 cg2d: Sum(rhs),rhsMax =  -6.79192413825528E-04  1.40788803523773E-01
 cg2d: Sum(rhs),rhsMax =  -6.78927425330566E-04  1.40779711944999E-01
 cg2d: Sum(rhs),rhsMax =  -6.78648612062922E-04  1.40770618300298E-01
 cg2d: Sum(rhs),rhsMax =  -6.78355880069637E-04  1.40761522613218E-01
 cg2d: Sum(rhs),rhsMax =  -6.78049133218902E-04  1.40752424907309E-01
 cg2d: Sum(rhs),rhsMax =  -6.77728274207734E-04  1.40743325206122E-01
 cg2d: Sum(rhs),rhsMax =  -6.77393205074353E-04  1.40734223533208E-01
 cg2d: Sum(rhs),rhsMax =  -6.77043828004559E-04  1.40725119912122E-01
 cg2d: Sum(rhs),rhsMax =  -6.76680045997670E-04  1.40716014366420E-01
 cg2d: Sum(rhs),rhsMax =  -6.76301763399855E-04  1.40706906919654E-01
 cg2d: Sum(rhs),rhsMax =  -6.75908886453633E-04  1.40697797595385E-01
 cg2d: Sum(rhs),rhsMax =  -6.75501323921236E-04  1.40688686417170E-01
 cg2d: Sum(rhs),rhsMax =  -6.75078987126438E-04  1.40679573408565E-01
 cg2d: Sum(rhs),rhsMax =  -6.74641790767758E-04  1.40670458593132E-01
 cg2d: Sum(rhs),rhsMax =  -6.74189652920678E-04  1.40661341994429E-01
 cg2d: Sum(rhs),rhsMax =  -6.73722495126050E-04  1.40652223636015E-01
 cg2d: Sum(rhs),rhsMax =  -6.73240243012962E-04  1.40643103541451E-01
 cg2d: Sum(rhs),rhsMax =  -6.72742826056884E-04  1.40633981734297E-01
 cg2d: Sum(rhs),rhsMax =  -6.72230177690784E-04  1.40624858238113E-01
 cg2d: Sum(rhs),rhsMax =  -6.71702235569857E-04  1.40615733076458E-01
 cg2d: Sum(rhs),rhsMax =  -6.71158941202074E-04  1.40606606272893E-01
 cg2d: Sum(rhs),rhsMax =  -6.70600240368332E-04  1.40597477850977E-01
 cg2d: Sum(rhs),rhsMax =  -6.70026082717826E-04  1.40588347834269E-01
 cg2d: Sum(rhs),rhsMax =  -6.69436421799566E-04  1.40579216246326E-01
 cg2d: Sum(rhs),rhsMax =  -6.68831214895737E-04  1.40570083110707E-01
 cg2d: Sum(rhs),rhsMax =  -6.68210423047553E-04  1.40560948450968E-01
 cg2d: Sum(rhs),rhsMax =  -6.67574010781327E-04  1.40551812290667E-01
(PID.TID 0000.0001)      cg2d_init_res =   1.00920186805816E-03
(PID.TID 0000.0001)      cg2d_iters(min,last) =      -1      62
(PID.TID 0000.0001)      cg2d_last_res =   8.62915356339610E-08
(PID.TID 0000.0001) // =======================================================
(PID.TID 0000.0001) // Begin MONITOR dynamic field statistics
(PID.TID 0000.0001) // =======================================================
(PID.TID 0000.0001) %MON time_tsnumber                =                 10944
(PID.TID 0000.0001) %MON time_secondsf                =   1.3132800000000E+07
(PID.TID 0000.0001) %MON dynstat_eta_max              =   5.3602858095762E-02
(PID.TID 0000.0001) %MON dynstat_eta_min              =  -1.6442752957690E-02
(PID.TID 0000.0001) %MON dynstat_eta_mean             =   4.6865497042397E-07
(PID.TID 0000.0001) %MON dynstat_eta_sd               =   1.5432567850488E-02
(PID.TID 0000.0001) %MON dynstat_eta_del2             =   1.8274041935302E-05
(PID.TID 0000.0001) %MON dynstat_uvel_max             =   3.1910910751196E-02
(PID.TID 0000.0001) %MON dynstat_uvel_min             =  -1.4609120364351E-02
(PID.TID 0000.0001) %MON dynstat_uvel_mean            =   2.7399990525058E-07
(PID.TID 0000.0001) %MON dynstat_uvel_sd              =   5.6790486409983E-03
(PID.TID 0000.0001) %MON dynstat_uvel_del2            =   7.8710721321630E-06
(PID.TID 0000.0001) %MON dynstat_vvel_max             =   8.5360254109990E-02
(PID.TID 0000.0001) %MON dynstat_vvel_min             =  -3.3509036509275E-02
(PID.TID 0000.0001) %MON dynstat_vvel_mean            =  -8.0010595742928E-10
(PID.TID 0000.0001) %MON dynstat_vvel_sd              =   1.4913645981403E-02
(PID.TID 0000.0001) %MON dynstat_vvel_del2            =   7.5540866821566E-05
(PID.TID 0000.0001) %MON dynstat_wvel_max             =   1.2461191009170E-08
(PID.TID 0000.0001) %MON dynstat_wvel_min             =  -1.3256645039073E-08
(PID.TID 0000.0001) %MON dynstat_wvel_mean            =   3.1245084149608E-22
(PID.TID 0000.0001) %MON dynstat_wvel_sd              =   5.7261170697420E-09
(PID.TID 0000.0001) %MON dynstat_wvel_del2            =   2.0257363133350E-12
(PID.TID 0000.0001) %MON dynstat_theta_max            =   2.0000000000000E+01
(PID.TID 0000.0001) %MON dynstat_theta_min            =   2.0000000000000E+01
(PID.TID 0000.0001) %MON dynstat_theta_mean           =   2.0000000000000E+01
(PID.TID 0000.0001) %MON dynstat_theta_sd             =   0.0000000000000E+00
(PID.TID 0000.0001) %MON dynstat_theta_del2           =   0.0000000000000E+00
(PID.TID 0000.0001) %MON dynstat_salt_max             =   3.0000000000000E+01
(PID.TID 0000.0001) %MON dynstat_salt_min             =   3.0000000000000E+01
(PID.TID 0000.0001) %MON dynstat_salt_mean            =   3.0000000000000E+01
(PID.TID 0000.0001) %MON dynstat_salt_sd              =   0.0000000000000E+00
(PID.TID 0000.0001) %MON dynstat_salt_del2            =   0.0000000000000E+00
(PID.TID 0000.0001) %MON trAdv_CFL_u_max              =   1.9147822616945E-03
(PID.TID 0000.0001) %MON trAdv_CFL_v_max              =   5.1219385562135E-03
(PID.TID 0000.0001) %MON trAdv_CFL_w_max              =   2.9906067619391E-09
(PID.TID 0000.0001) %MON advcfl_uvel_max              =   1.9146546450717E-03
(PID.TID 0000.0001) %MON advcfl_vvel_max              =   5.1216152465994E-03
(PID.TID 0000.0001) %MON advcfl_wvel_max              =   6.3631896187551E-09
(PID.TID 0000.0001) %MON advcfl_W_hf_max              =   0.0000000000000E+00
(PID.TID 0000.0001) %MON pe_b_mean                    =   2.3363903181663E-07
(PID.TID 0000.0001) %MON ke_max                       =   3.6391598608095E-03
(PID.TID 0000.0001) %MON ke_mean                      =   1.2521197808359E-04
(PID.TID 0000.0001) %MON ke_vol                       =   7.2000000000000E+15
(PID.TID 0000.0001) %MON vort_r_min                   =  -1.5071983195697E-06
(PID.TID 0000.0001) %MON vort_r_max                   =   2.3241520594837E-06
(PID.TID 0000.0001) %MON vort_a_mean                  =   1.0600000000000E-04
(PID.TID 0000.0001) %MON vort_a_sd                    =   3.5371325328701E-06
(PID.TID 0000.0001) %MON vort_p_mean                  =   1.1130000000000E-04
(PID.TID 0000.0001) %MON vort_p_sd                    =   4.1149205647013E-05
(PID.TID 0000.0001) %MON surfExpan_theta_mean         =   6.2494213507828E-21
(PID.TID 0000.0001) %MON surfExpan_salt_mean          =   9.3740527685861E-21
(PID.TID 0000.0001) // =======================================================
(PID.TID 0000.0001) // End MONITOR dynamic field statistics
(PID.TID 0000.0001) // =======================================================
 cg2d: Sum(rhs),rhsMax =  -6.66921946076464E-04  1.40542674653357E-01
 cg2d: Sum(rhs),rhsMax =  -6.66254200139060E-04  1.40533535562595E-01
 cg2d: Sum(rhs),rhsMax =  -6.65570747293850E-04  1.40524395041934E-01
 cg2d: Sum(rhs),rhsMax =  -6.64871564780955E-04  1.40515253114925E-01
 cg2d: Sum(rhs),rhsMax =  -6.64156632880283E-04  1.40506109805121E-01
 cg2d: Sum(rhs),rhsMax =  -6.63425934214331E-04  1.40496965136071E-01
 cg2d: Sum(rhs),rhsMax =  -6.62679454072935E-04  1.40487819131324E-01
 cg2d: Sum(rhs),rhsMax =  -6.61917180128042E-04  1.40478671814427E-01
 cg2d: Sum(rhs),rhsMax =  -6.61139102219424E-04  1.40469523208928E-01
 cg2d: Sum(rhs),rhsMax =  -6.60345212350359E-04  1.40460373338372E-01
 cg2d: Sum(rhs),rhsMax =  -6.59535504465424E-04  1.40451222226301E-01
 cg2d: Sum(rhs),rhsMax =  -6.58709974253784E-04  1.40442069896256E-01
 cg2d: Sum(rhs),rhsMax =  -6.57868619274072E-04  1.40432916371780E-01
 cg2d: Sum(rhs),rhsMax =  -6.57011438581351E-04  1.40423761676410E-01
 cg2d: Sum(rhs),rhsMax =  -6.56138432823006E-04  1.40414605833683E-01
 cg2d: Sum(rhs),rhsMax =  -6.55249603880859E-04  1.40405448867134E-01
 cg2d: Sum(rhs),rhsMax =  -6.54344955128131E-04  1.40396290800298E-01
 cg2d: Sum(rhs),rhsMax =  -6.53424491064663E-04  1.40387131656705E-01
 cg2d: Sum(rhs),rhsMax =  -6.52488217346795E-04  1.40377971459886E-01
 cg2d: Sum(rhs),rhsMax =  -6.51536140615551E-04  1.40368810233368E-01
 cg2d: Sum(rhs),rhsMax =  -6.50568268555403E-04  1.40359648000677E-01
 cg2d: Sum(rhs),rhsMax =  -6.49584609654833E-04  1.40350484785337E-01
 cg2d: Sum(rhs),rhsMax =  -6.48585173433133E-04  1.40341320610870E-01
 cg2d: Sum(rhs),rhsMax =  -6.47569969946329E-04  1.40332155500795E-01
 cg2d: Sum(rhs),rhsMax =  -6.46539010219936E-04  1.40322989478630E-01
 cg2d: Sum(rhs),rhsMax =  -6.45492305703012E-04  1.40313822567890E-01
 cg2d: Sum(rhs),rhsMax =  -6.44429868701538E-04  1.40304654792088E-01
 cg2d: Sum(rhs),rhsMax =  -6.43351711999622E-04  1.40295486174734E-01
 cg2d: Sum(rhs),rhsMax =  -6.42257848964285E-04  1.40286316739337E-01
 cg2d: Sum(rhs),rhsMax =  -6.41148293334683E-04  1.40277146509402E-01
 cg2d: Sum(rhs),rhsMax =  -6.40023059445062E-04  1.40267975508433E-01
 cg2d: Sum(rhs),rhsMax =  -6.38882162075098E-04  1.40258803759930E-01
 cg2d: Sum(rhs),rhsMax =  -6.37725616340368E-04  1.40249631287392E-01
 cg2d: Sum(rhs),rhsMax =  -6.36553437714584E-04  1.40240458114312E-01
 cg2d: Sum(rhs),rhsMax =  -6.35365642182192E-04  1.40231284264186E-01
 cg2d: Sum(rhs),rhsMax =  -6.34162245790157E-04  1.40222109760502E-01
 cg2d: Sum(rhs),rhsMax =  -6.32943265144194E-04  1.40212934626748E-01
 cg2d: Sum(rhs),rhsMax =  -6.31708716905877E-04  1.40203758886408E-01
 cg2d: Sum(rhs),rhsMax =  -6.30458618211585E-04  1.40194582562963E-01
 cg2d: Sum(rhs),rhsMax =  -6.29192986381553E-04  1.40185405679892E-01
 cg2d: Sum(rhs),rhsMax =  -6.27911838882847E-04  1.40176228260671E-01
 cg2d: Sum(rhs),rhsMax =  -6.26615193431348E-04  1.40167050328771E-01
 cg2d: Sum(rhs),rhsMax =  -6.25303068092564E-04  1.40157871907662E-01
 cg2d: Sum(rhs),rhsMax =  -6.23975480972670E-04  1.40148693020811E-01
 cg2d: Sum(rhs),rhsMax =  -6.22632450417654E-04  1.40139513691680E-01
 cg2d: Sum(rhs),rhsMax =  -6.21830003404738E-04  1.40130334201722E-01
 cg2d: Sum(rhs),rhsMax =  -6.21021405458146E-04  1.40121154065607E-01
 cg2d: Sum(rhs),rhsMax =  -6.20206533270144E-04  1.40111973521681E-01
 cg2d: Sum(rhs),rhsMax =  -6.19385315138251E-04  1.40102792659715E-01
 cg2d: Sum(rhs),rhsMax =  -6.18557766994039E-04  1.40093611485971E-01
 cg2d: Sum(rhs),rhsMax =  -6.17723960258277E-04  1.40084430005315E-01
 cg2d: Sum(rhs),rhsMax =  -6.16883985897748E-04  1.40075248234821E-01
 cg2d: Sum(rhs),rhsMax =  -6.16037929987800E-04  1.40066066200913E-01
 cg2d: Sum(rhs),rhsMax =  -6.15185864731921E-04  1.40056883933060E-01
 cg2d: Sum(rhs),rhsMax =  -6.14327850201566E-04  1.40047701459058E-01
 cg2d: Sum(rhs),rhsMax =  -6.13463940830998E-04  1.40038518803576E-01
 cg2d: Sum(rhs),rhsMax =  -6.12594190787633E-04  1.40029335989064E-01
 cg2d: Sum(rhs),rhsMax =  -6.11718656221558E-04  1.40020153037351E-01
 cg2d: Sum(rhs),rhsMax =  -6.10837395512976E-04  1.40010969970741E-01
 cg2d: Sum(rhs),rhsMax =  -6.09950467942841E-04  1.40001786812321E-01
 cg2d: Sum(rhs),rhsMax =  -6.09057932425802E-04  1.39992603585731E-01
 cg2d: Sum(rhs),rhsMax =  -6.08159847095657E-04  1.39983420314777E-01
 cg2d: Sum(rhs),rhsMax =  -6.07256268762090E-04  1.39974237023151E-01
 cg2d: Sum(rhs),rhsMax =  -6.06448932708769E-04  1.39965053501210E-01
 cg2d: Sum(rhs),rhsMax =  -6.05637404155633E-04  1.39955870214000E-01
 cg2d: Sum(rhs),rhsMax =  -6.04821626655473E-04  1.39946686996147E-01
 cg2d: Sum(rhs),rhsMax =  -6.04001687579530E-04  1.39937503851332E-01
 cg2d: Sum(rhs),rhsMax =  -6.03177638126026E-04  1.39928320803265E-01
 cg2d: Sum(rhs),rhsMax =  -6.02349531690045E-04  1.39919137873705E-01
 cg2d: Sum(rhs),rhsMax =  -6.01517418427042E-04  1.39909955085523E-01
 cg2d: Sum(rhs),rhsMax =  -6.00681347301884E-04  1.39900772462410E-01
 cg2d: Sum(rhs),rhsMax =  -5.99841366540388E-04  1.39891590028488E-01
(PID.TID 0000.0001)      cg2d_init_res =   1.00454758236064E-03
(PID.TID 0000.0001)      cg2d_iters(min,last) =      -1      69
(PID.TID 0000.0001)      cg2d_last_res =   9.61549664981521E-08
(PID.TID 0000.0001) // =======================================================
(PID.TID 0000.0001) // Begin MONITOR dynamic field statistics
(PID.TID 0000.0001) // =======================================================
(PID.TID 0000.0001) %MON time_tsnumber                =                 11016
(PID.TID 0000.0001) %MON time_secondsf                =   1.3219200000000E+07
(PID.TID 0000.0001) %MON dynstat_eta_max              =   5.3063420219195E-02
(PID.TID 0000.0001) %MON dynstat_eta_min              =  -1.6493024519116E-02
(PID.TID 0000.0001) %MON dynstat_eta_mean             =   4.1894607969446E-07
(PID.TID 0000.0001) %MON dynstat_eta_sd               =   1.5108311851642E-02
(PID.TID 0000.0001) %MON dynstat_eta_del2             =   1.8245032146501E-05
(PID.TID 0000.0001) %MON dynstat_uvel_max             =   3.1755499927925E-02
(PID.TID 0000.0001) %MON dynstat_uvel_min             =  -1.4458634016037E-02
(PID.TID 0000.0001) %MON dynstat_uvel_mean            =   2.6769071747453E-07
(PID.TID 0000.0001) %MON dynstat_uvel_sd              =   5.6283730139975E-03
(PID.TID 0000.0001) %MON dynstat_uvel_del2            =   7.8296699904106E-06
(PID.TID 0000.0001) %MON dynstat_vvel_max             =   8.4967566883019E-02
(PID.TID 0000.0001) %MON dynstat_vvel_min             =  -3.3614679211140E-02
(PID.TID 0000.0001) %MON dynstat_vvel_mean            =  -2.3504681155093E-09
(PID.TID 0000.0001) %MON dynstat_vvel_sd              =   1.4826511060859E-02
(PID.TID 0000.0001) %MON dynstat_vvel_del2            =   7.5298124029784E-05
(PID.TID 0000.0001) %MON dynstat_wvel_max             =   1.2404365191469E-08
(PID.TID 0000.0001) %MON dynstat_wvel_min             =  -1.2863103832642E-08
(PID.TID 0000.0001) %MON dynstat_wvel_mean            =   1.2913005775772E-22
(PID.TID 0000.0001) %MON dynstat_wvel_sd              =   5.6833206502891E-09
(PID.TID 0000.0001) %MON dynstat_wvel_del2            =   2.0220528909497E-12
(PID.TID 0000.0001) %MON dynstat_theta_max            =   2.0000000000000E+01
(PID.TID 0000.0001) %MON dynstat_theta_min            =   2.0000000000000E+01
(PID.TID 0000.0001) %MON dynstat_theta_mean           =   2.0000000000000E+01
(PID.TID 0000.0001) %MON dynstat_theta_sd             =   0.0000000000000E+00
(PID.TID 0000.0001) %MON dynstat_theta_del2           =   0.0000000000000E+00
(PID.TID 0000.0001) %MON dynstat_salt_max             =   3.0000000000000E+01
(PID.TID 0000.0001) %MON dynstat_salt_min             =   3.0000000000000E+01
(PID.TID 0000.0001) %MON dynstat_salt_mean            =   3.0000000000000E+01
(PID.TID 0000.0001) %MON dynstat_salt_sd              =   0.0000000000000E+00
(PID.TID 0000.0001) %MON dynstat_salt_del2            =   0.0000000000000E+00
(PID.TID 0000.0001) %MON trAdv_CFL_u_max              =   1.9054611123736E-03
(PID.TID 0000.0001) %MON trAdv_CFL_v_max              =   5.0983843500192E-03
(PID.TID 0000.0001) %MON trAdv_CFL_w_max              =   2.9774613170768E-09
(PID.TID 0000.0001) %MON advcfl_uvel_max              =   1.9053299956755E-03
(PID.TID 0000.0001) %MON advcfl_vvel_max              =   5.0980540129811E-03
(PID.TID 0000.0001) %MON advcfl_wvel_max              =   6.1742898396682E-09
(PID.TID 0000.0001) %MON advcfl_W_hf_max              =   0.0000000000000E+00
(PID.TID 0000.0001) %MON pe_b_mean                    =   2.2392412652551E-07
(PID.TID 0000.0001) %MON ke_max                       =   3.6046249194973E-03
(PID.TID 0000.0001) %MON ke_mean                      =   1.2365613977129E-04
(PID.TID 0000.0001) %MON ke_vol                       =   7.2000000000000E+15
(PID.TID 0000.0001) %MON vort_r_min                   =  -1.5086899802604E-06
(PID.TID 0000.0001) %MON vort_r_max                   =   2.3122736359687E-06
(PID.TID 0000.0001) %MON vort_a_mean                  =   1.0600000000000E-04
(PID.TID 0000.0001) %MON vort_a_sd                    =   3.5369943942652E-06
(PID.TID 0000.0001) %MON vort_p_mean                  =   1.1130000000000E-04
(PID.TID 0000.0001) %MON vort_p_sd                    =   4.1149227465595E-05
(PID.TID 0000.0001) %MON surfExpan_theta_mean         =   2.5812413934684E-21
(PID.TID 0000.0001) %MON surfExpan_salt_mean          =   3.8718633237838E-21
(PID.TID 0000.0001) // =======================================================
(PID.TID 0000.0001) // End MONITOR dynamic field statistics
(PID.TID 0000.0001) // =======================================================
 cg2d: Sum(rhs),rhsMax =  -5.98997524059708E-04  1.39882407807656E-01
 cg2d: Sum(rhs),rhsMax =  -5.98149868021819E-04  1.39873225823415E-01
 cg2d: Sum(rhs),rhsMax =  -5.97298445873277E-04  1.39864044098980E-01
 cg2d: Sum(rhs),rhsMax =  -5.96443304510172E-04  1.39854862657482E-01
 cg2d: Sum(rhs),rhsMax =  -5.95584490022692E-04  1.39845681522106E-01
 cg2d: Sum(rhs),rhsMax =  -5.94722047746605E-04  1.39836500716138E-01
 cg2d: Sum(rhs),rhsMax =  -5.93856022433795E-04  1.39827320262925E-01
 cg2d: Sum(rhs),rhsMax =  -5.92986458097299E-04  1.39818140185833E-01
 cg2d: Sum(rhs),rhsMax =  -5.92211256904287E-04  1.39808960325627E-01
 cg2d: Sum(rhs),rhsMax =  -5.91433324744893E-04  1.39799781041629E-01
 cg2d: Sum(rhs),rhsMax =  -5.90652841240043E-04  1.39790602229139E-01
 cg2d: Sum(rhs),rhsMax =  -5.89869818747375E-04  1.39781423884800E-01
 cg2d: Sum(rhs),rhsMax =  -5.89084301022847E-04  1.39772246032414E-01
 cg2d: Sum(rhs),rhsMax =  -5.88296327322106E-04  1.39763068695281E-01
 cg2d: Sum(rhs),rhsMax =  -5.87505931985879E-04  1.39753891896276E-01
 cg2d: Sum(rhs),rhsMax =  -5.86713147695117E-04  1.39744715658888E-01
 cg2d: Sum(rhs),rhsMax =  -5.85918007962730E-04  1.39735540006926E-01
 cg2d: Sum(rhs),rhsMax =  -5.85120547684115E-04  1.39726364964064E-01
 cg2d: Sum(rhs),rhsMax =  -5.84320802447295E-04  1.39717190553693E-01
 cg2d: Sum(rhs),rhsMax =  -5.83518807588303E-04  1.39708016798985E-01
 cg2d: Sum(rhs),rhsMax =  -5.82714597385873E-04  1.39698843723039E-01
 cg2d: Sum(rhs),rhsMax =  -5.81908205114736E-04  1.39689671348985E-01
 cg2d: Sum(rhs),rhsMax =  -5.81099663275673E-04  1.39680499700017E-01
 cg2d: Sum(rhs),rhsMax =  -5.80289003411561E-04  1.39671328799375E-01
 cg2d: Sum(rhs),rhsMax =  -5.79476256945127E-04  1.39662158670311E-01
 cg2d: Sum(rhs),rhsMax =  -5.78661454763276E-04  1.39652989336065E-01
 cg2d: Sum(rhs),rhsMax =  -5.77844627338043E-04  1.39643820819854E-01
 cg2d: Sum(rhs),rhsMax =  -5.77025804842569E-04  1.39634653144873E-01
 cg2d: Sum(rhs),rhsMax =  -5.76205016542535E-04  1.39625486334311E-01
 cg2d: Sum(rhs),rhsMax =  -5.75382291656437E-04  1.39616320411349E-01
 cg2d: Sum(rhs),rhsMax =  -5.74557658478752E-04  1.39607155399167E-01
 cg2d: Sum(rhs),rhsMax =  -5.73731144936828E-04  1.39597991320940E-01
 cg2d: Sum(rhs),rhsMax =  -5.72902778583332E-04  1.39588828199839E-01
 cg2d: Sum(rhs),rhsMax =  -5.72072586395638E-04  1.39579666059027E-01
 cg2d: Sum(rhs),rhsMax =  -5.71240594978709E-04  1.39570504921661E-01
 cg2d: Sum(rhs),rhsMax =  -5.70517479635799E-04  1.39561344717838E-01
 cg2d: Sum(rhs),rhsMax =  -5.69793371842859E-04  1.39552185628431E-01
 cg2d: Sum(rhs),rhsMax =  -5.69068194822811E-04  1.39543027638576E-01
 cg2d: Sum(rhs),rhsMax =  -5.68342037515733E-04  1.39533870743194E-01
 cg2d: Sum(rhs),rhsMax =  -5.67614930627893E-04  1.39524714965915E-01
 cg2d: Sum(rhs),rhsMax =  -5.66886897356091E-04  1.39515560330065E-01
 cg2d: Sum(rhs),rhsMax =  -5.66157953930874E-04  1.39506406858815E-01
 cg2d: Sum(rhs),rhsMax =  -5.65428115718374E-04  1.39497254575415E-01
 cg2d: Sum(rhs),rhsMax =  -5.64697399921167E-04  1.39488103503347E-01
 cg2d: Sum(rhs),rhsMax =  -5.63965826161503E-04  1.39478953665992E-01
 cg2d: Sum(rhs),rhsMax =  -5.63233415297199E-04  1.39469805086525E-01
 cg2d: Sum(rhs),rhsMax =  -5.62500188294560E-04  1.39460657787963E-01
 cg2d: Sum(rhs),rhsMax =  -5.61884943598834E-04  1.39451511924906E-01
 cg2d: Sum(rhs),rhsMax =  -5.61269415164998E-04  1.39442367234190E-01
 cg2d: Sum(rhs),rhsMax =  -5.60653739055462E-04  1.39433223913117E-01
 cg2d: Sum(rhs),rhsMax =  -5.60037920657778E-04  1.39424081964806E-01
 cg2d: Sum(rhs),rhsMax =  -5.59421983847739E-04  1.39414941410773E-01
 cg2d: Sum(rhs),rhsMax =  -5.58805944140779E-04  1.39405802274996E-01
 cg2d: Sum(rhs),rhsMax =  -5.58189811044029E-04  1.39396664580652E-01
 cg2d: Sum(rhs),rhsMax =  -5.57573593128402E-04  1.39387528350916E-01
 cg2d: Sum(rhs),rhsMax =  -5.56957300691379E-04  1.39378393609057E-01
 cg2d: Sum(rhs),rhsMax =  -5.56340946359836E-04  1.39369260378292E-01
 cg2d: Sum(rhs),rhsMax =  -5.55724544215179E-04  1.39360128681697E-01
 cg2d: Sum(rhs),rhsMax =  -5.55108108195600E-04  1.39350998542229E-01
 cg2d: Sum(rhs),rhsMax =  -5.54491651513646E-04  1.39341869982787E-01
 cg2d: Sum(rhs),rhsMax =  -5.53875186396215E-04  1.39332743026274E-01
 cg2d: Sum(rhs),rhsMax =  -5.53258724557600E-04  1.39323617695619E-01
 cg2d: Sum(rhs),rhsMax =  -5.52642277087600E-04  1.39314494013770E-01
 cg2d: Sum(rhs),rhsMax =  -5.52025855120489E-04  1.39305372003683E-01
 cg2d: Sum(rhs),rhsMax =  -5.51409469601012E-04  1.39296251688302E-01
 cg2d: Sum(rhs),rhsMax =  -5.50793131626558E-04  1.39287133090560E-01
 cg2d: Sum(rhs),rhsMax =  -5.50176851735361E-04  1.39278016233369E-01
 cg2d: Sum(rhs),rhsMax =  -5.49560640506889E-04  1.39268901139638E-01
 cg2d: Sum(rhs),rhsMax =  -5.48944508015121E-04  1.39259787832263E-01
 cg2d: Sum(rhs),rhsMax =  -5.48328464230270E-04  1.39250676334134E-01
 cg2d: Sum(rhs),rhsMax =  -5.47712518964850E-04  1.39241566668133E-01
 cg2d: Sum(rhs),rhsMax =  -5.47096681606749E-04  1.39232458857135E-01
(PID.TID 0000.0001)      cg2d_init_res =   9.98626206900749E-04
(PID.TID 0000.0001)      cg2d_iters(min,last) =      -1      73
(PID.TID 0000.0001)      cg2d_last_res =   8.77016918517122E-08
(PID.TID 0000.0001) // =======================================================
(PID.TID 0000.0001) // Begin MONITOR dynamic field statistics
(PID.TID 0000.0001) // =======================================================
(PID.TID 0000.0001) %MON time_tsnumber                =                 11088
(PID.TID 0000.0001) %MON time_secondsf                =   1.3305600000000E+07
(PID.TID 0000.0001) %MON dynstat_eta_max              =   5.2477034771718E-02
(PID.TID 0000.0001) %MON dynstat_eta_min              =  -1.6591409043243E-02
(PID.TID 0000.0001) %MON dynstat_eta_mean             =   3.8049509617037E-07
(PID.TID 0000.0001) %MON dynstat_eta_sd               =   1.4806191748232E-02
(PID.TID 0000.0001) %MON dynstat_eta_del2             =   1.8212291502712E-05
(PID.TID 0000.0001) %MON dynstat_uvel_max             =   3.1596755652628E-02
(PID.TID 0000.0001) %MON dynstat_uvel_min             =  -1.4314361100591E-02
(PID.TID 0000.0001) %MON dynstat_uvel_mean            =   2.5825784037406E-07
(PID.TID 0000.0001) %MON dynstat_uvel_sd              =   5.5892973782749E-03
(PID.TID 0000.0001) %MON dynstat_uvel_del2            =   7.7910357693260E-06
(PID.TID 0000.0001) %MON dynstat_vvel_max             =   8.4569128635679E-02
(PID.TID 0000.0001) %MON dynstat_vvel_min             =  -3.3705244080250E-02
(PID.TID 0000.0001) %MON dynstat_vvel_mean            =  -3.8744595286500E-09
(PID.TID 0000.0001) %MON dynstat_vvel_sd              =   1.4739628208122E-02
(PID.TID 0000.0001) %MON dynstat_vvel_del2            =   7.5043841551111E-05
(PID.TID 0000.0001) %MON dynstat_wvel_max             =   1.2345355154357E-08
(PID.TID 0000.0001) %MON dynstat_wvel_min             =  -1.2440019587812E-08
(PID.TID 0000.0001) %MON dynstat_wvel_mean            =  -1.4260473335526E-21
(PID.TID 0000.0001) %MON dynstat_wvel_sd              =   5.6399453279268E-09
(PID.TID 0000.0001) %MON dynstat_wvel_del2            =   2.0249021129086E-12
(PID.TID 0000.0001) %MON dynstat_theta_max            =   2.0000000000000E+01
(PID.TID 0000.0001) %MON dynstat_theta_min            =   2.0000000000000E+01
(PID.TID 0000.0001) %MON dynstat_theta_mean           =   2.0000000000000E+01
(PID.TID 0000.0001) %MON dynstat_theta_sd             =   0.0000000000000E+00
(PID.TID 0000.0001) %MON dynstat_theta_del2           =   0.0000000000000E+00
(PID.TID 0000.0001) %MON dynstat_salt_max             =   3.0000000000000E+01
(PID.TID 0000.0001) %MON dynstat_salt_min             =   3.0000000000000E+01
(PID.TID 0000.0001) %MON dynstat_salt_mean            =   3.0000000000000E+01
(PID.TID 0000.0001) %MON dynstat_salt_sd              =   0.0000000000000E+00
(PID.TID 0000.0001) %MON dynstat_salt_del2            =   0.0000000000000E+00
(PID.TID 0000.0001) %MON trAdv_CFL_u_max              =   1.8959385277662E-03
(PID.TID 0000.0001) %MON trAdv_CFL_v_max              =   5.0744806762886E-03
(PID.TID 0000.0001) %MON trAdv_CFL_w_max              =   2.9656108268362E-09
(PID.TID 0000.0001) %MON advcfl_uvel_max              =   1.8958053391577E-03
(PID.TID 0000.0001) %MON advcfl_vvel_max              =   5.0741477181407E-03
(PID.TID 0000.0001) %MON advcfl_wvel_max              =   5.9712094021495E-09
(PID.TID 0000.0001) %MON advcfl_W_hf_max              =   0.0000000000000E+00
(PID.TID 0000.0001) %MON pe_b_mean                    =   2.1505807125982E-07
(PID.TID 0000.0001) %MON ke_max                       =   3.5697762841282E-03
(PID.TID 0000.0001) %MON ke_mean                      =   1.2217763510689E-04
(PID.TID 0000.0001) %MON ke_vol                       =   7.2000000000000E+15
(PID.TID 0000.0001) %MON vort_r_min                   =  -1.5097198498195E-06
(PID.TID 0000.0001) %MON vort_r_max                   =   2.3005923302774E-06
(PID.TID 0000.0001) %MON vort_a_mean                  =   1.0600000000000E-04
(PID.TID 0000.0001) %MON vort_a_sd                    =   3.5368543954929E-06
(PID.TID 0000.0001) %MON vort_p_mean                  =   1.1130000000000E-04
(PID.TID 0000.0001) %MON vort_p_sd                    =   4.1149267441329E-05
(PID.TID 0000.0001) %MON surfExpan_theta_mean         =  -2.8524224957336E-20
(PID.TID 0000.0001) %MON surfExpan_salt_mean          =  -4.2787008504143E-20
(PID.TID 0000.0001) // =======================================================
(PID.TID 0000.0001) // End MONITOR dynamic field statistics
(PID.TID 0000.0001) // =======================================================
 cg2d: Sum(rhs),rhsMax =  -5.46596657769498E-04  1.39223352632452E-01
 cg2d: Sum(rhs),rhsMax =  -5.46097173072754E-04  1.39214248579533E-01
 cg2d: Sum(rhs),rhsMax =  -5.45598187231348E-04  1.39205146467246E-01
 cg2d: Sum(rhs),rhsMax =  -5.45099740117410E-04  1.39196046300044E-01
 cg2d: Sum(rhs),rhsMax =  -5.44601842485727E-04  1.39186948100727E-01
 cg2d: Sum(rhs),rhsMax =  -5.44104500915942E-04  1.39177851892588E-01
 cg2d: Sum(rhs),rhsMax =  -5.43607718162554E-04  1.39168757698985E-01
 cg2d: Sum(rhs),rhsMax =  -5.43111496691654E-04  1.39159665542870E-01
 cg2d: Sum(rhs),rhsMax =  -5.42615839667197E-04  1.39150575447142E-01
 cg2d: Sum(rhs),rhsMax =  -5.42120751852948E-04  1.39141487434669E-01
 cg2d: Sum(rhs),rhsMax =  -5.41626238479119E-04  1.39132401528276E-01
 cg2d: Sum(rhs),rhsMax =  -5.41132305015623E-04  1.39123317750726E-01
 cg2d: Sum(rhs),rhsMax =  -5.40638956506830E-04  1.39114236124744E-01
 cg2d: Sum(rhs),rhsMax =  -5.40146197378738E-04  1.39105156673047E-01
 cg2d: Sum(rhs),rhsMax =  -5.39654031952747E-04  1.39096079418352E-01
 cg2d: Sum(rhs),rhsMax =  -5.39162463943380E-04  1.39087004383386E-01
 cg2d: Sum(rhs),rhsMax =  -5.38671497258511E-04  1.39077931590871E-01
 cg2d: Sum(rhs),rhsMax =  -5.38181135777628E-04  1.39068861063523E-01
 cg2d: Sum(rhs),rhsMax =  -5.37691383206210E-04  1.39059792824043E-01
 cg2d: Sum(rhs),rhsMax =  -5.37202243245098E-04  1.39050726895124E-01
 cg2d: Sum(rhs),rhsMax =  -5.36713719431445E-04  1.39041663299446E-01
 cg2d: Sum(rhs),rhsMax =  -5.36225815186058E-04  1.39032602059677E-01
 cg2d: Sum(rhs),rhsMax =  -5.35738533764103E-04  1.39023543198481E-01
 cg2d: Sum(rhs),rhsMax =  -5.35251878308202E-04  1.39014486738507E-01
 cg2d: Sum(rhs),rhsMax =  -5.34765851830444E-04  1.39005432702397E-01
 cg2d: Sum(rhs),rhsMax =  -5.34280457406573E-04  1.38996381112779E-01
 cg2d: Sum(rhs),rhsMax =  -5.33795697787707E-04  1.38987331992275E-01
 cg2d: Sum(rhs),rhsMax =  -5.33311575841766E-04  1.38978285363493E-01
 cg2d: Sum(rhs),rhsMax =  -5.32828094214468E-04  1.38969241249034E-01
 cg2d: Sum(rhs),rhsMax =  -5.32345255409721E-04  1.38960199671487E-01
 cg2d: Sum(rhs),rhsMax =  -5.31863062014910E-04  1.38951160653433E-01
 cg2d: Sum(rhs),rhsMax =  -5.31381516289101E-04  1.38942124217439E-01
 cg2d: Sum(rhs),rhsMax =  -5.30900620667611E-04  1.38933090386068E-01
 cg2d: Sum(rhs),rhsMax =  -5.30420377292527E-04  1.38924059181866E-01
 cg2d: Sum(rhs),rhsMax =  -5.29940788419047E-04  1.38915030627372E-01
 cg2d: Sum(rhs),rhsMax =  -5.29461856081699E-04  1.38906004745114E-01
 cg2d: Sum(rhs),rhsMax =  -5.28983582229052E-04  1.38896981557607E-01
 cg2d: Sum(rhs),rhsMax =  -5.28505968778449E-04  1.38887961087359E-01
 cg2d: Sum(rhs),rhsMax =  -5.28029017614643E-04  1.38878943356865E-01
 cg2d: Sum(rhs),rhsMax =  -5.27552730480957E-04  1.38869928388609E-01
 cg2d: Sum(rhs),rhsMax =  -5.27077109039961E-04  1.38860916205066E-01
 cg2d: Sum(rhs),rhsMax =  -5.26602155000729E-04  1.38851906828698E-01
 cg2d: Sum(rhs),rhsMax =  -5.26127869857168E-04  1.38842900281958E-01
 cg2d: Sum(rhs),rhsMax =  -5.25654255242547E-04  1.38833896587287E-01
 cg2d: Sum(rhs),rhsMax =  -5.25181312429287E-04  1.38824895767116E-01
 cg2d: Sum(rhs),rhsMax =  -5.24806253607193E-04  1.38815897665272E-01
 cg2d: Sum(rhs),rhsMax =  -5.24431945953333E-04  1.38806902644500E-01
 cg2d: Sum(rhs),rhsMax =  -5.24058468301520E-04  1.38797910577354E-01
 cg2d: Sum(rhs),rhsMax =  -5.23685793961361E-04  1.38788921476191E-01
 cg2d: Sum(rhs),rhsMax =  -5.23313920038715E-04  1.38779935360187E-01
 cg2d: Sum(rhs),rhsMax =  -5.22942846075470E-04  1.38770952252271E-01
 cg2d: Sum(rhs),rhsMax =  -5.22572572079661E-04  1.38761972175509E-01
 cg2d: Sum(rhs),rhsMax =  -5.22203097623643E-04  1.38752995152389E-01
 cg2d: Sum(rhs),rhsMax =  -5.21834421974954E-04  1.38744021205162E-01
 cg2d: Sum(rhs),rhsMax =  -5.21466544217863E-04  1.38735050356092E-01
 cg2d: Sum(rhs),rhsMax =  -5.21099463234129E-04  1.38726082627495E-01
 cg2d: Sum(rhs),rhsMax =  -5.20733178006632E-04  1.38717118041693E-01
 cg2d: Sum(rhs),rhsMax =  -5.20367687468522E-04  1.38708156620981E-01
 cg2d: Sum(rhs),rhsMax =  -5.20002990623692E-04  1.38699198387631E-01
 cg2d: Sum(rhs),rhsMax =  -5.19639086483606E-04  1.38690243363891E-01
 cg2d: Sum(rhs),rhsMax =  -5.19275973994851E-04  1.38681291572001E-01
 cg2d: Sum(rhs),rhsMax =  -5.18913652025323E-04  1.38672343034189E-01
 cg2d: Sum(rhs),rhsMax =  -5.18552119466857E-04  1.38663397772676E-01
 cg2d: Sum(rhs),rhsMax =  -5.18191375243224E-04  1.38654455809674E-01
 cg2d: Sum(rhs),rhsMax =  -5.17831417902374E-04  1.38645517167384E-01
 cg2d: Sum(rhs),rhsMax =  -5.17472246436494E-04  1.38636581867996E-01
 cg2d: Sum(rhs),rhsMax =  -5.17113859498176E-04  1.38627649933686E-01
 cg2d: Sum(rhs),rhsMax =  -5.16756255983446E-04  1.38618721386619E-01
 cg2d: Sum(rhs),rhsMax =  -5.16399434414123E-04  1.38609796248946E-01
 cg2d: Sum(rhs),rhsMax =  -5.16043393594418E-04  1.38600874542803E-01
 cg2d: Sum(rhs),rhsMax =  -5.15688132180369E-04  1.38591956290315E-01
 cg2d: Sum(rhs),rhsMax =  -5.15333648830978E-04  1.38583041513594E-01
(PID.TID 0000.0001)      cg2d_init_res =   9.91546198786447E-04
(PID.TID 0000.0001)      cg2d_iters(min,last) =      -1      74
(PID.TID 0000.0001)      cg2d_last_res =   8.94787611055749E-08
(PID.TID 0000.0001) // =======================================================
(PID.TID 0000.0001) // Begin MONITOR dynamic field statistics
(PID.TID 0000.0001) // =======================================================
(PID.TID 0000.0001) %MON time_tsnumber                =                 11160
(PID.TID 0000.0001) %MON time_secondsf                =   1.3392000000000E+07
(PID.TID 0000.0001) %MON dynstat_eta_max              =   5.1851230403470E-02
(PID.TID 0000.0001) %MON dynstat_eta_min              =  -1.6736366154076E-02
(PID.TID 0000.0001) %MON dynstat_eta_mean             =   3.5681448786052E-07
(PID.TID 0000.0001) %MON dynstat_eta_sd               =   1.4530772495436E-02
(PID.TID 0000.0001) %MON dynstat_eta_del2             =   1.8176133569864E-05
(PID.TID 0000.0001) %MON dynstat_uvel_max             =   3.1436400605356E-02
(PID.TID 0000.0001) %MON dynstat_uvel_min             =  -1.4177710373040E-02
(PID.TID 0000.0001) %MON dynstat_uvel_mean            =   2.4583945918302E-07
(PID.TID 0000.0001) %MON dynstat_uvel_sd              =   5.5625188827323E-03
(PID.TID 0000.0001) %MON dynstat_uvel_del2            =   7.7560932742620E-06
(PID.TID 0000.0001) %MON dynstat_vvel_max             =   8.4170215271783E-02
(PID.TID 0000.0001) %MON dynstat_vvel_min             =  -3.3811168589721E-02
(PID.TID 0000.0001) %MON dynstat_vvel_mean            =  -5.3559413259011E-09
(PID.TID 0000.0001) %MON dynstat_vvel_sd              =   1.4653837075847E-02
(PID.TID 0000.0001) %MON dynstat_vvel_del2            =   7.4780606294503E-05
(PID.TID 0000.0001) %MON dynstat_wvel_max             =   1.2198183593064E-08
(PID.TID 0000.0001) %MON dynstat_wvel_min             =  -1.2026552174648E-08
(PID.TID 0000.0001) %MON dynstat_wvel_mean            =   2.2030690161046E-21
(PID.TID 0000.0001) %MON dynstat_wvel_sd              =   5.5967930055906E-09
(PID.TID 0000.0001) %MON dynstat_wvel_del2            =   2.0221898490449E-12
(PID.TID 0000.0001) %MON dynstat_theta_max            =   2.0000000000000E+01
(PID.TID 0000.0001) %MON dynstat_theta_min            =   2.0000000000000E+01
(PID.TID 0000.0001) %MON dynstat_theta_mean           =   2.0000000000000E+01
(PID.TID 0000.0001) %MON dynstat_theta_sd             =   0.0000000000000E+00
(PID.TID 0000.0001) %MON dynstat_theta_del2           =   0.0000000000000E+00
(PID.TID 0000.0001) %MON dynstat_salt_max             =   3.0000000000000E+01
(PID.TID 0000.0001) %MON dynstat_salt_min             =   3.0000000000000E+01
(PID.TID 0000.0001) %MON dynstat_salt_mean            =   3.0000000000000E+01
(PID.TID 0000.0001) %MON dynstat_salt_sd              =   0.0000000000000E+00
(PID.TID 0000.0001) %MON dynstat_salt_del2            =   0.0000000000000E+00
(PID.TID 0000.0001) %MON trAdv_CFL_u_max              =   1.8863178571086E-03
(PID.TID 0000.0001) %MON trAdv_CFL_v_max              =   5.0505441157636E-03
(PID.TID 0000.0001) %MON trAdv_CFL_w_max              =   2.9279833445151E-09
(PID.TID 0000.0001) %MON advcfl_uvel_max              =   1.8861840363214E-03
(PID.TID 0000.0001) %MON advcfl_vvel_max              =   5.0502129163070E-03
(PID.TID 0000.0001) %MON advcfl_wvel_max              =   5.8551281246706E-09
(PID.TID 0000.0001) %MON advcfl_W_hf_max              =   0.0000000000000E+00
(PID.TID 0000.0001) %MON pe_b_mean                    =   2.0713162580205E-07
(PID.TID 0000.0001) %MON ke_max                       =   3.5356318788258E-03
(PID.TID 0000.0001) %MON ke_mean                      =   1.2079097406812E-04
(PID.TID 0000.0001) %MON ke_vol                       =   7.2000000000000E+15
(PID.TID 0000.0001) %MON vort_r_min                   =  -1.5103016931930E-06
(PID.TID 0000.0001) %MON vort_r_max                   =   2.2892570664831E-06
(PID.TID 0000.0001) %MON vort_a_mean                  =   1.0600000000000E-04
(PID.TID 0000.0001) %MON vort_a_sd                    =   3.5367139560271E-06
(PID.TID 0000.0001) %MON vort_p_mean                  =   1.1130000000000E-04
(PID.TID 0000.0001) %MON vort_p_sd                    =   4.1149325094728E-05
(PID.TID 0000.0001) %MON surfExpan_theta_mean         =   4.4058307619505E-20
(PID.TID 0000.0001) %MON surfExpan_salt_mean          =   6.6087421954661E-20
(PID.TID 0000.0001) // =======================================================
(PID.TID 0000.0001) // End MONITOR dynamic field statistics
(PID.TID 0000.0001) // =======================================================
 cg2d: Sum(rhs),rhsMax =  -5.14979942177696E-04  1.38574130234742E-01
 cg2d: Sum(rhs),rhsMax =  -5.14627010764032E-04  1.38565222475845E-01
 cg2d: Sum(rhs),rhsMax =  -5.14274853311931E-04  1.38556318258978E-01
 cg2d: Sum(rhs),rhsMax =  -5.13923468287728E-04  1.38547417606207E-01
 cg2d: Sum(rhs),rhsMax =  -5.13572854317799E-04  1.38538520539581E-01
 cg2d: Sum(rhs),rhsMax =  -5.13223009907052E-04  1.38529627081137E-01
 cg2d: Sum(rhs),rhsMax =  -5.12873933678400E-04  1.38520737252901E-01
 cg2d: Sum(rhs),rhsMax =  -5.12525624051858E-04  1.38511851076884E-01
 cg2d: Sum(rhs),rhsMax =  -5.12178079551710E-04  1.38502968575087E-01
 cg2d: Sum(rhs),rhsMax =  -5.11831298670641E-04  1.38494089769493E-01
 cg2d: Sum(rhs),rhsMax =  -5.11485279918141E-04  1.38485214682079E-01
 cg2d: Sum(rhs),rhsMax =  -5.11140021804180E-04  1.38476343334801E-01
 cg2d: Sum(rhs),rhsMax =  -5.10795522708444E-04  1.38467475749607E-01
 cg2d: Sum(rhs),rhsMax =  -5.10451781124788E-04  1.38458611948433E-01
 cg2d: Sum(rhs),rhsMax =  -5.10108795427549E-04  1.38449751953197E-01
 cg2d: Sum(rhs),rhsMax =  -5.09766564084587E-04  1.38440895785808E-01
 cg2d: Sum(rhs),rhsMax =  -5.09425085548986E-04  1.38432043468159E-01
 cg2d: Sum(rhs),rhsMax =  -5.09084358186447E-04  1.38423195022133E-01
 cg2d: Sum(rhs),rhsMax =  -5.08744380449965E-04  1.38414350469594E-01
 cg2d: Sum(rhs),rhsMax =  -5.08405150708813E-04  1.38405509832398E-01
 cg2d: Sum(rhs),rhsMax =  -5.08066667259111E-04  1.38396673132385E-01
 cg2d: Sum(rhs),rhsMax =  -5.07728928627622E-04  1.38387840391382E-01
 cg2d: Sum(rhs),rhsMax =  -5.07391933083782E-04  1.38379011631201E-01
 cg2d: Sum(rhs),rhsMax =  -5.07055678982603E-04  1.38370186873643E-01
 cg2d: Sum(rhs),rhsMax =  -5.06720164803760E-04  1.38361366140495E-01
 cg2d: Sum(rhs),rhsMax =  -5.06385388817393E-04  1.38352549453526E-01
 cg2d: Sum(rhs),rhsMax =  -5.06051349420128E-04  1.38343736834496E-01
 cg2d: Sum(rhs),rhsMax =  -5.05718045005996E-04  1.38334928305149E-01
 cg2d: Sum(rhs),rhsMax =  -5.05385473821660E-04  1.38326123887217E-01
 cg2d: Sum(rhs),rhsMax =  -5.05053634180064E-04  1.38317323602414E-01
 cg2d: Sum(rhs),rhsMax =  -5.04722524598922E-04  1.38308527472446E-01
 cg2d: Sum(rhs),rhsMax =  -5.04392143248085E-04  1.38299735518999E-01
 cg2d: Sum(rhs),rhsMax =  -5.04061832781413E-04  1.38291127690544E-01
 cg2d: Sum(rhs),rhsMax =  -5.03730983468632E-04  1.38282871207587E-01
 cg2d: Sum(rhs),rhsMax =  -5.03400859821133E-04  1.38274618958609E-01
 cg2d: Sum(rhs),rhsMax =  -5.03071460086847E-04  1.38266370964842E-01
 cg2d: Sum(rhs),rhsMax =  -5.02742782513804E-04  1.38258127247511E-01
 cg2d: Sum(rhs),rhsMax =  -5.02414825613239E-04  1.38249887827820E-01
 cg2d: Sum(rhs),rhsMax =  -5.02087587501225E-04  1.38241652726965E-01
 cg2d: Sum(rhs),rhsMax =  -5.01761066743827E-04  1.38233421966125E-01
 cg2d: Sum(rhs),rhsMax =  -5.01435261500326E-04  1.38225195566467E-01
 cg2d: Sum(rhs),rhsMax =  -5.01110170111471E-04  1.38216973549140E-01
 cg2d: Sum(rhs),rhsMax =  -5.00785790925893E-04  1.38208755935283E-01
 cg2d: Sum(rhs),rhsMax =  -5.00462122254222E-04  1.38200542746020E-01
 cg2d: Sum(rhs),rhsMax =  -5.00139162477005E-04  1.38192334002460E-01
 cg2d: Sum(rhs),rhsMax =  -4.99816909820568E-04  1.38184129725698E-01
 cg2d: Sum(rhs),rhsMax =  -4.99495362732850E-04  1.38175929936814E-01
 cg2d: Sum(rhs),rhsMax =  -4.99174519470296E-04  1.38167734656875E-01
 cg2d: Sum(rhs),rhsMax =  -4.98854378410934E-04  1.38159543906935E-01
 cg2d: Sum(rhs),rhsMax =  -4.98534937856581E-04  1.38151357708029E-01
 cg2d: Sum(rhs),rhsMax =  -4.98216196188726E-04  1.38143176081181E-01
 cg2d: Sum(rhs),rhsMax =  -4.97898151727665E-04  1.38134999047401E-01
 cg2d: Sum(rhs),rhsMax =  -4.97580802817222E-04  1.38126826627681E-01
 cg2d: Sum(rhs),rhsMax =  -4.97264147817759E-04  1.38118658843003E-01
 cg2d: Sum(rhs),rhsMax =  -4.96948185021933E-04  1.38110495714329E-01
 cg2d: Sum(rhs),rhsMax =  -4.96632912837270E-04  1.38102337262612E-01
 cg2d: Sum(rhs),rhsMax =  -4.96318329677306E-04  1.38094183508785E-01
 cg2d: Sum(rhs),rhsMax =  -4.96004433891028E-04  1.38086034473770E-01
 cg2d: Sum(rhs),rhsMax =  -4.95691223809120E-04  1.38077890178472E-01
 cg2d: Sum(rhs),rhsMax =  -4.95378697805168E-04  1.38069750643783E-01
 cg2d: Sum(rhs),rhsMax =  -4.95066854283776E-04  1.38061615890576E-01
 cg2d: Sum(rhs),rhsMax =  -4.94755691632580E-04  1.38053485939715E-01
 cg2d: Sum(rhs),rhsMax =  -4.94445208215176E-04  1.38045360812044E-01
 cg2d: Sum(rhs),rhsMax =  -4.94135402435121E-04  1.38037240528394E-01
 cg2d: Sum(rhs),rhsMax =  -4.93826272719872E-04  1.38029125109580E-01
 cg2d: Sum(rhs),rhsMax =  -4.93517817468789E-04  1.38021014576403E-01
 cg2d: Sum(rhs),rhsMax =  -4.93210035014805E-04  1.38012908949647E-01
 cg2d: Sum(rhs),rhsMax =  -4.92902923876339E-04  1.38004808250084E-01
 cg2d: Sum(rhs),rhsMax =  -4.92596482433703E-04  1.37996712498466E-01
 cg2d: Sum(rhs),rhsMax =  -4.92290709073384E-04  1.37988621715533E-01
 cg2d: Sum(rhs),rhsMax =  -4.91985602369036E-04  1.37980535922007E-01
 cg2d: Sum(rhs),rhsMax =  -4.91681160640352E-04  1.37972455138598E-01
(PID.TID 0000.0001)      cg2d_init_res =   9.83320512754289E-04
(PID.TID 0000.0001)      cg2d_iters(min,last) =      -1      74
(PID.TID 0000.0001)      cg2d_last_res =   9.97897643724195E-08
(PID.TID 0000.0001) // =======================================================
(PID.TID 0000.0001) // Begin MONITOR dynamic field statistics
(PID.TID 0000.0001) // =======================================================
(PID.TID 0000.0001) %MON time_tsnumber                =                 11232
(PID.TID 0000.0001) %MON time_secondsf                =   1.3478400000000E+07
(PID.TID 0000.0001) %MON dynstat_eta_max              =   5.1193888701754E-02
(PID.TID 0000.0001) %MON dynstat_eta_min              =  -1.6925834569402E-02
(PID.TID 0000.0001) %MON dynstat_eta_mean             =   3.3896287799574E-07
(PID.TID 0000.0001) %MON dynstat_eta_sd               =   1.4286411140855E-02
(PID.TID 0000.0001) %MON dynstat_eta_del2             =   1.8136904476902E-05
(PID.TID 0000.0001) %MON dynstat_uvel_max             =   3.1276161486019E-02
(PID.TID 0000.0001) %MON dynstat_uvel_min             =  -1.4050019888713E-02
(PID.TID 0000.0001) %MON dynstat_uvel_mean            =   2.3061292273560E-07
(PID.TID 0000.0001) %MON dynstat_uvel_sd              =   5.5485746678020E-03
(PID.TID 0000.0001) %MON dynstat_uvel_del2            =   7.7257987040680E-06
(PID.TID 0000.0001) %MON dynstat_vvel_max             =   8.3776032613843E-02
(PID.TID 0000.0001) %MON dynstat_vvel_min             =  -3.3890228923479E-02
(PID.TID 0000.0001) %MON dynstat_vvel_mean            =  -6.7793977735859E-09
(PID.TID 0000.0001) %MON dynstat_vvel_sd              =   1.4569955249297E-02
(PID.TID 0000.0001) %MON dynstat_vvel_del2            =   7.4511109769452E-05
(PID.TID 0000.0001) %MON dynstat_wvel_max             =   1.2000768653252E-08
(PID.TID 0000.0001) %MON dynstat_wvel_min             =  -1.1570492407191E-08
(PID.TID 0000.0001) %MON dynstat_wvel_mean            =   8.3184305468522E-22
(PID.TID 0000.0001) %MON dynstat_wvel_sd              =   5.5546669448930E-09
(PID.TID 0000.0001) %MON dynstat_wvel_del2            =   2.0186935748606E-12
(PID.TID 0000.0001) %MON dynstat_theta_max            =   2.0000000000000E+01
(PID.TID 0000.0001) %MON dynstat_theta_min            =   2.0000000000000E+01
(PID.TID 0000.0001) %MON dynstat_theta_mean           =   2.0000000000000E+01
(PID.TID 0000.0001) %MON dynstat_theta_sd             =   0.0000000000000E+00
(PID.TID 0000.0001) %MON dynstat_theta_del2           =   0.0000000000000E+00
(PID.TID 0000.0001) %MON dynstat_salt_max             =   3.0000000000000E+01
(PID.TID 0000.0001) %MON dynstat_salt_min             =   3.0000000000000E+01
(PID.TID 0000.0001) %MON dynstat_salt_mean            =   3.0000000000000E+01
(PID.TID 0000.0001) %MON dynstat_salt_sd              =   0.0000000000000E+00
(PID.TID 0000.0001) %MON dynstat_salt_del2            =   0.0000000000000E+00
(PID.TID 0000.0001) %MON trAdv_CFL_u_max              =   1.8767027069042E-03
(PID.TID 0000.0001) %MON trAdv_CFL_v_max              =   5.0268871071780E-03
(PID.TID 0000.0001) %MON trAdv_CFL_w_max              =   2.8810718019711E-09
(PID.TID 0000.0001) %MON advcfl_uvel_max              =   1.8765696891611E-03
(PID.TID 0000.0001) %MON advcfl_vvel_max              =   5.0265619568306E-03
(PID.TID 0000.0001) %MON advcfl_wvel_max              =   5.7603689535608E-09
(PID.TID 0000.0001) %MON advcfl_W_hf_max              =   0.0000000000000E+00
(PID.TID 0000.0001) %MON pe_b_mean                    =   2.0022361407583E-07
(PID.TID 0000.0001) %MON ke_max                       =   3.5035617422808E-03
(PID.TID 0000.0001) %MON ke_mean                      =   1.1950955279142E-04
(PID.TID 0000.0001) %MON ke_vol                       =   7.2000000000000E+15
(PID.TID 0000.0001) %MON vort_r_min                   =  -1.5104536629286E-06
(PID.TID 0000.0001) %MON vort_r_max                   =   2.2784105846467E-06
(PID.TID 0000.0001) %MON vort_a_mean                  =   1.0600000000000E-04
(PID.TID 0000.0001) %MON vort_a_sd                    =   3.5365744822122E-06
(PID.TID 0000.0001) %MON vort_p_mean                  =   1.1130000000000E-04
(PID.TID 0000.0001) %MON vort_p_sd                    =   4.1149399765790E-05
(PID.TID 0000.0001) %MON surfExpan_theta_mean         =   1.6631752765130E-20
(PID.TID 0000.0001) %MON surfExpan_salt_mean          =   2.4946365960608E-20
(PID.TID 0000.0001) // =======================================================
(PID.TID 0000.0001) // End MONITOR dynamic field statistics
(PID.TID 0000.0001) // =======================================================
 cg2d: Sum(rhs),rhsMax =  -4.91377382353106E-04  1.37964379385999E-01
 cg2d: Sum(rhs),rhsMax =  -4.91074265882891E-04  1.37956308684884E-01
 cg2d: Sum(rhs),rhsMax =  -4.90844552152859E-04  1.37948243046192E-01
 cg2d: Sum(rhs),rhsMax =  -4.90615517919226E-04  1.37940182486791E-01
 cg2d: Sum(rhs),rhsMax =  -4.90387094325830E-04  1.37932127056989E-01
 cg2d: Sum(rhs),rhsMax =  -4.90159291521839E-04  1.37924076766325E-01
 cg2d: Sum(rhs),rhsMax =  -4.89932102226726E-04  1.37916031629789E-01
 cg2d: Sum(rhs),rhsMax =  -4.89705524379470E-04  1.37907991667742E-01
 cg2d: Sum(rhs),rhsMax =  -4.89479558043776E-04  1.37899956901666E-01
 cg2d: Sum(rhs),rhsMax =  -4.89254203208663E-04  1.37891927352216E-01
 cg2d: Sum(rhs),rhsMax =  -4.89029459141740E-04  1.37883903039715E-01
 cg2d: Sum(rhs),rhsMax =  -4.88805323684355E-04  1.37875883984534E-01
 cg2d: Sum(rhs),rhsMax =  -4.88581794402313E-04  1.37867870207161E-01
 cg2d: Sum(rhs),rhsMax =  -4.88358868676469E-04  1.37859861728131E-01
 cg2d: Sum(rhs),rhsMax =  -4.88136544229985E-04  1.37851858567956E-01
 cg2d: Sum(rhs),rhsMax =  -4.87914819023425E-04  1.37843860747112E-01
 cg2d: Sum(rhs),rhsMax =  -4.87693691220839E-04  1.37835868286034E-01
 cg2d: Sum(rhs),rhsMax =  -4.87473158930752E-04  1.37827881205129E-01
 cg2d: Sum(rhs),rhsMax =  -4.87253220344607E-04  1.37819899524793E-01
 cg2d: Sum(rhs),rhsMax =  -4.87033873424713E-04  1.37811923265404E-01
 cg2d: Sum(rhs),rhsMax =  -4.86815116272040E-04  1.37803952447334E-01
 cg2d: Sum(rhs),rhsMax =  -4.86596946838994E-04  1.37795987090940E-01
 cg2d: Sum(rhs),rhsMax =  -4.86379363272336E-04  1.37788027216566E-01
 cg2d: Sum(rhs),rhsMax =  -4.86162363616428E-04  1.37780072844535E-01
 cg2d: Sum(rhs),rhsMax =  -4.85945946052456E-04  1.37772123995154E-01
 cg2d: Sum(rhs),rhsMax =  -4.85730108547162E-04  1.37764180688712E-01
 cg2d: Sum(rhs),rhsMax =  -4.85514849331745E-04  1.37756242945478E-01
 cg2d: Sum(rhs),rhsMax =  -4.85300166524738E-04  1.37748310785706E-01
 cg2d: Sum(rhs),rhsMax =  -4.85086058240513E-04  1.37740384229634E-01
 cg2d: Sum(rhs),rhsMax =  -4.84872522672263E-04  1.37732463297481E-01
 cg2d: Sum(rhs),rhsMax =  -4.84659557917699E-04  1.37724548009452E-01
 cg2d: Sum(rhs),rhsMax =  -4.84447162228381E-04  1.37716638385734E-01
 cg2d: Sum(rhs),rhsMax =  -4.84235333747030E-04  1.37708734446496E-01
 cg2d: Sum(rhs),rhsMax =  -4.84024070572098E-04  1.37700836211892E-01
 cg2d: Sum(rhs),rhsMax =  -4.83813371068288E-04  1.37692943702057E-01
 cg2d: Sum(rhs),rhsMax =  -4.83603233360924E-04  1.37685056937111E-01
 cg2d: Sum(rhs),rhsMax =  -4.83393655717751E-04  1.37677175937152E-01
 cg2d: Sum(rhs),rhsMax =  -4.83184636367388E-04  1.37669300722267E-01
 cg2d: Sum(rhs),rhsMax =  -4.82976173566060E-04  1.37661431312520E-01
 cg2d: Sum(rhs),rhsMax =  -4.82768265519077E-04  1.37653567727962E-01
 cg2d: Sum(rhs),rhsMax =  -4.82560910598542E-04  1.37645709988622E-01
 cg2d: Sum(rhs),rhsMax =  -4.82354106985551E-04  1.37637858114515E-01
 cg2d: Sum(rhs),rhsMax =  -4.82147853024245E-04  1.37630012125639E-01
 cg2d: Sum(rhs),rhsMax =  -4.81942147020659E-04  1.37622172041972E-01
 cg2d: Sum(rhs),rhsMax =  -4.81736987308192E-04  1.37614337883475E-01
 cg2d: Sum(rhs),rhsMax =  -4.81532372099678E-04  1.37606509670092E-01
 cg2d: Sum(rhs),rhsMax =  -4.81328299856508E-04  1.37598687421749E-01
 cg2d: Sum(rhs),rhsMax =  -4.81124768867807E-04  1.37590871158354E-01
 cg2d: Sum(rhs),rhsMax =  -4.80921777516326E-04  1.37583060899797E-01
 cg2d: Sum(rhs),rhsMax =  -4.80719324094069E-04  1.37575256665952E-01
 cg2d: Sum(rhs),rhsMax =  -4.80517407102662E-04  1.37567458476672E-01
 cg2d: Sum(rhs),rhsMax =  -4.80316024833511E-04  1.37559666351795E-01
 cg2d: Sum(rhs),rhsMax =  -4.80115175711872E-04  1.37551880311138E-01
 cg2d: Sum(rhs),rhsMax =  -4.79914858130819E-04  1.37544100374503E-01
 cg2d: Sum(rhs),rhsMax =  -4.79715070491331E-04  1.37536326561672E-01
 cg2d: Sum(rhs),rhsMax =  -4.79515811249430E-04  1.37528558892410E-01
 cg2d: Sum(rhs),rhsMax =  -4.79317078862128E-04  1.37520797386463E-01
 cg2d: Sum(rhs),rhsMax =  -4.79118871750560E-04  1.37513042063558E-01
 cg2d: Sum(rhs),rhsMax =  -4.78921188399773E-04  1.37505292943405E-01
 cg2d: Sum(rhs),rhsMax =  -4.78724027257414E-04  1.37497550045696E-01
 cg2d: Sum(rhs),rhsMax =  -4.78527386862632E-04  1.37489813390106E-01
 cg2d: Sum(rhs),rhsMax =  -4.78331265661791E-04  1.37482082996286E-01
 cg2d: Sum(rhs),rhsMax =  -4.78135662147087E-04  1.37474358883874E-01
 cg2d: Sum(rhs),rhsMax =  -4.77940574810996E-04  1.37466641072487E-01
 cg2d: Sum(rhs),rhsMax =  -4.77746002229830E-04  1.37458929581726E-01
 cg2d: Sum(rhs),rhsMax =  -4.77551942875114E-04  1.37451224431169E-01
 cg2d: Sum(rhs),rhsMax =  -4.77358395366465E-04  1.37443525640380E-01
 cg2d: Sum(rhs),rhsMax =  -4.77165358214023E-04  1.37435833228902E-01
 cg2d: Sum(rhs),rhsMax =  -4.76972829897425E-04  1.37428147216258E-01
 cg2d: Sum(rhs),rhsMax =  -4.76780809112141E-04  1.37420467621955E-01
 cg2d: Sum(rhs),rhsMax =  -4.76589294402158E-04  1.37412794465479E-01
 cg2d: Sum(rhs),rhsMax =  -4.76398284358157E-04  1.37405127766300E-01
(PID.TID 0000.0001)      cg2d_init_res =   9.74177778448187E-04
(PID.TID 0000.0001)      cg2d_iters(min,last) =      -1      75
(PID.TID 0000.0001)      cg2d_last_res =   8.72765729380198E-08
(PID.TID 0000.0001) // =======================================================
(PID.TID 0000.0001) // Begin MONITOR dynamic field statistics
(PID.TID 0000.0001) // =======================================================
(PID.TID 0000.0001) %MON time_tsnumber                =                 11304
(PID.TID 0000.0001) %MON time_secondsf                =   1.3564800000000E+07
(PID.TID 0000.0001) %MON dynstat_eta_max              =   5.0513167469146E-02
(PID.TID 0000.0001) %MON dynstat_eta_min              =  -1.7157240398431E-02
(PID.TID 0000.0001) %MON dynstat_eta_mean             =   3.2714871330836E-07
(PID.TID 0000.0001) %MON dynstat_eta_sd               =   1.4077122545709E-02
(PID.TID 0000.0001) %MON dynstat_eta_del2             =   1.8094978673904E-05
(PID.TID 0000.0001) %MON dynstat_uvel_max             =   3.1117748776647E-02
(PID.TID 0000.0001) %MON dynstat_uvel_min             =  -1.3932542420029E-02
(PID.TID 0000.0001) %MON dynstat_uvel_mean            =   2.1278918100696E-07
(PID.TID 0000.0001) %MON dynstat_uvel_sd              =   5.5478128007864E-03
(PID.TID 0000.0001) %MON dynstat_uvel_del2            =   7.7010983108676E-06
(PID.TID 0000.0001) %MON dynstat_vvel_max             =   8.3391652634173E-02
(PID.TID 0000.0001) %MON dynstat_vvel_min             =  -3.3941116357040E-02
(PID.TID 0000.0001) %MON dynstat_vvel_mean            =  -8.1301735449304E-09
(PID.TID 0000.0001) %MON dynstat_vvel_sd              =   1.4488771457370E-02
(PID.TID 0000.0001) %MON dynstat_vvel_del2            =   7.4238122310361E-05
(PID.TID 0000.0001) %MON dynstat_wvel_max             =   1.1770720101063E-08
(PID.TID 0000.0001) %MON dynstat_wvel_min             =  -1.1093978306162E-08
(PID.TID 0000.0001) %MON dynstat_wvel_mean            =   1.0320450706382E-21
(PID.TID 0000.0001) %MON dynstat_wvel_sd              =   5.5143320555399E-09
(PID.TID 0000.0001) %MON dynstat_wvel_del2            =   2.0129351319717E-12
(PID.TID 0000.0001) %MON dynstat_theta_max            =   2.0000000000000E+01
(PID.TID 0000.0001) %MON dynstat_theta_min            =   2.0000000000000E+01
(PID.TID 0000.0001) %MON dynstat_theta_mean           =   2.0000000000000E+01
(PID.TID 0000.0001) %MON dynstat_theta_sd             =   0.0000000000000E+00
(PID.TID 0000.0001) %MON dynstat_theta_del2           =   0.0000000000000E+00
(PID.TID 0000.0001) %MON dynstat_salt_max             =   3.0000000000000E+01
(PID.TID 0000.0001) %MON dynstat_salt_min             =   3.0000000000000E+01
(PID.TID 0000.0001) %MON dynstat_salt_mean            =   3.0000000000000E+01
(PID.TID 0000.0001) %MON dynstat_salt_sd              =   0.0000000000000E+00
(PID.TID 0000.0001) %MON dynstat_salt_del2            =   0.0000000000000E+00
(PID.TID 0000.0001) %MON trAdv_CFL_u_max              =   1.8671957280507E-03
(PID.TID 0000.0001) %MON trAdv_CFL_v_max              =   5.0038141045726E-03
(PID.TID 0000.0001) %MON trAdv_CFL_w_max              =   2.8258943318029E-09
(PID.TID 0000.0001) %MON advcfl_uvel_max              =   1.8670649265988E-03
(PID.TID 0000.0001) %MON advcfl_vvel_max              =   5.0034991580504E-03
(PID.TID 0000.0001) %MON advcfl_wvel_max              =   5.6499456485100E-09
(PID.TID 0000.0001) %MON advcfl_W_hf_max              =   0.0000000000000E+00
(PID.TID 0000.0001) %MON pe_b_mean                    =   1.9440023706772E-07
(PID.TID 0000.0001) %MON ke_max                       =   3.4724490814360E-03
(PID.TID 0000.0001) %MON ke_mean                      =   1.1834550658706E-04
(PID.TID 0000.0001) %MON ke_vol                       =   7.2000000000000E+15
(PID.TID 0000.0001) %MON vort_r_min                   =  -1.5101979586759E-06
(PID.TID 0000.0001) %MON vort_r_max                   =   2.2685229657245E-06
(PID.TID 0000.0001) %MON vort_a_mean                  =   1.0600000000000E-04
(PID.TID 0000.0001) %MON vort_a_sd                    =   3.5364373525967E-06
(PID.TID 0000.0001) %MON vort_p_mean                  =   1.1130000000000E-04
(PID.TID 0000.0001) %MON vort_p_sd                    =   4.1149490623500E-05
(PID.TID 0000.0001) %MON surfExpan_theta_mean         =   2.0643792848003E-20
(PID.TID 0000.0001) %MON surfExpan_salt_mean          =   3.0961189168011E-20
(PID.TID 0000.0001) // =======================================================
(PID.TID 0000.0001) // End MONITOR dynamic field statistics
(PID.TID 0000.0001) // =======================================================
 cg2d: Sum(rhs),rhsMax =  -4.76207777546649E-04  1.37397467543865E-01
 cg2d: Sum(rhs),rhsMax =  -4.76017772624299E-04  1.37389813817606E-01
 cg2d: Sum(rhs),rhsMax =  -4.75828268209755E-04  1.37382166606933E-01
 cg2d: Sum(rhs),rhsMax =  -4.75639262990901E-04  1.37374525931239E-01
 cg2d: Sum(rhs),rhsMax =  -4.75450755445477E-04  1.37366891809897E-01
 cg2d: Sum(rhs),rhsMax =  -4.75262744367261E-04  1.37359264262260E-01
 cg2d: Sum(rhs),rhsMax =  -4.75075228361974E-04  1.37351643307664E-01
 cg2d: Sum(rhs),rhsMax =  -4.74888206161430E-04  1.37344028965425E-01
 cg2d: Sum(rhs),rhsMax =  -4.74701676324631E-04  1.37336421254838E-01
 cg2d: Sum(rhs),rhsMax =  -4.74515637684487E-04  1.37328820195181E-01
 cg2d: Sum(rhs),rhsMax =  -4.74330088881718E-04  1.37321225805711E-01
 cg2d: Sum(rhs),rhsMax =  -4.74145028585998E-04  1.37313638105667E-01
 cg2d: Sum(rhs),rhsMax =  -4.73960455575626E-04  1.37306057114267E-01
 cg2d: Sum(rhs),rhsMax =  -4.73776368539803E-04  1.37298482850712E-01
 cg2d: Sum(rhs),rhsMax =  -4.73592766158289E-04  1.37290915334180E-01
 cg2d: Sum(rhs),rhsMax =  -4.73409647285893E-04  1.37283354583833E-01
 cg2d: Sum(rhs),rhsMax =  -4.73227010729515E-04  1.37275800618810E-01
 cg2d: Sum(rhs),rhsMax =  -4.73044855106512E-04  1.37268253458233E-01
 cg2d: Sum(rhs),rhsMax =  -4.72863179298430E-04  1.37260713121203E-01
 cg2d: Sum(rhs),rhsMax =  -4.72681981962616E-04  1.37253179626801E-01
 cg2d: Sum(rhs),rhsMax =  -4.72501261983585E-04  1.37245652994091E-01
 cg2d: Sum(rhs),rhsMax =  -4.72321018203377E-04  1.37238133242112E-01
 cg2d: Sum(rhs),rhsMax =  -4.72141249296585E-04  1.37230620389888E-01
 cg2d: Sum(rhs),rhsMax =  -4.71961954226919E-04  1.37223114456420E-01
 cg2d: Sum(rhs),rhsMax =  -4.71783131747954E-04  1.37215615460692E-01
 cg2d: Sum(rhs),rhsMax =  -4.71604780736871E-04  1.37208123421664E-01
 cg2d: Sum(rhs),rhsMax =  -4.71426900011382E-04  1.37200638358279E-01
 cg2d: Sum(rhs),rhsMax =  -4.71249488450008E-04  1.37193160289459E-01
 cg2d: Sum(rhs),rhsMax =  -4.71072544925253E-04  1.37185689234106E-01
 cg2d: Sum(rhs),rhsMax =  -4.70896068248241E-04  1.37178225211102E-01
 cg2d: Sum(rhs),rhsMax =  -4.70720057386066E-04  1.37170768239308E-01
 cg2d: Sum(rhs),rhsMax =  -4.70544511171668E-04  1.37163318337565E-01
 cg2d: Sum(rhs),rhsMax =  -4.70369428549868E-04  1.37155875524694E-01
 cg2d: Sum(rhs),rhsMax =  -4.70194808412682E-04  1.37148439819496E-01
 cg2d: Sum(rhs),rhsMax =  -4.70020649608821E-04  1.37141011240751E-01
 cg2d: Sum(rhs),rhsMax =  -4.69846951205792E-04  1.37133589807218E-01
 cg2d: Sum(rhs),rhsMax =  -4.69673712088737E-04  1.37126175537638E-01
 cg2d: Sum(rhs),rhsMax =  -4.69500931158648E-04  1.37118768450727E-01
 cg2d: Sum(rhs),rhsMax =  -4.69328607307529E-04  1.37111368565185E-01
 cg2d: Sum(rhs),rhsMax =  -4.69156739642426E-04  1.37103975899689E-01
 cg2d: Sum(rhs),rhsMax =  -4.68985326971260E-04  1.37096590472896E-01
 cg2d: Sum(rhs),rhsMax =  -4.68814368395609E-04  1.37089212303441E-01
 cg2d: Sum(rhs),rhsMax =  -4.68643862833903E-04  1.37081841409941E-01
 cg2d: Sum(rhs),rhsMax =  -4.68473809299219E-04  1.37074477810991E-01
 cg2d: Sum(rhs),rhsMax =  -4.68304206824589E-04  1.37067121525163E-01
 cg2d: Sum(rhs),rhsMax =  -4.68135054410713E-04  1.37059772571011E-01
 cg2d: Sum(rhs),rhsMax =  -4.67966350972739E-04  1.37052430967066E-01
 cg2d: Sum(rhs),rhsMax =  -4.67798095668836E-04  1.37045096731839E-01
 cg2d: Sum(rhs),rhsMax =  -4.67630287444270E-04  1.37037769883823E-01
 cg2d: Sum(rhs),rhsMax =  -4.67462925343462E-04  1.37030450441484E-01
 cg2d: Sum(rhs),rhsMax =  -4.67296008572840E-04  1.37023138423270E-01
 cg2d: Sum(rhs),rhsMax =  -4.67129535966765E-04  1.37015833847609E-01
 cg2d: Sum(rhs),rhsMax =  -4.66963506719945E-04  1.37008536732906E-01
 cg2d: Sum(rhs),rhsMax =  -4.66797919825540E-04  1.37001247097546E-01
 cg2d: Sum(rhs),rhsMax =  -4.66632774373249E-04  1.36993964959892E-01
 cg2d: Sum(rhs),rhsMax =  -4.66468069543752E-04  1.36986690338285E-01
 cg2d: Sum(rhs),rhsMax =  -4.66303804358192E-04  1.36979423251048E-01
 cg2d: Sum(rhs),rhsMax =  -4.66139977843115E-04  1.36972163716476E-01
 cg2d: Sum(rhs),rhsMax =  -4.65976589264444E-04  1.36964911752851E-01
 cg2d: Sum(rhs),rhsMax =  -4.65813637637154E-04  1.36957667378428E-01
 cg2d: Sum(rhs),rhsMax =  -4.65651122081724E-04  1.36950430611440E-01
 cg2d: Sum(rhs),rhsMax =  -4.65489041733787E-04  1.36943201470103E-01
 cg2d: Sum(rhs),rhsMax =  -4.65327395803170E-04  1.36935979972606E-01
 cg2d: Sum(rhs),rhsMax =  -4.65166183347824E-04  1.36928766137122E-01
 cg2d: Sum(rhs),rhsMax =  -4.65005403627438E-04  1.36921559981797E-01
 cg2d: Sum(rhs),rhsMax =  -4.64845055686518E-04  1.36914361524759E-01
 cg2d: Sum(rhs),rhsMax =  -4.64685138834119E-04  1.36907170784113E-01
 cg2d: Sum(rhs),rhsMax =  -4.64525652067313E-04  1.36899987777941E-01
 cg2d: Sum(rhs),rhsMax =  -4.64366594621174E-04  1.36892812524305E-01
 cg2d: Sum(rhs),rhsMax =  -4.64207965661706E-04  1.36885645041245E-01
 cg2d: Sum(rhs),rhsMax =  -4.64049764481597E-04  1.36878485346778E-01
 cg2d: Sum(rhs),rhsMax =  -4.63891990158960E-04  1.36871333458899E-01
(PID.TID 0000.0001)      cg2d_init_res =   9.64478286860849E-04
(PID.TID 0000.0001)      cg2d_iters(min,last) =      -1      75
(PID.TID 0000.0001)      cg2d_last_res =   8.88579876063139E-08
(PID.TID 0000.0001) // =======================================================
(PID.TID 0000.0001) // Begin MONITOR dynamic field statistics
(PID.TID 0000.0001) // =======================================================
(PID.TID 0000.0001) %MON time_tsnumber                =                 11376
(PID.TID 0000.0001) %MON time_secondsf                =   1.3651200000000E+07
(PID.TID 0000.0001) %MON dynstat_eta_max              =   4.9817386019612E-02
(PID.TID 0000.0001) %MON dynstat_eta_min              =  -1.7427546179174E-02
(PID.TID 0000.0001) %MON dynstat_eta_mean             =   3.1734332937871E-07
(PID.TID 0000.0001) %MON dynstat_eta_sd               =   1.3906434722047E-02
(PID.TID 0000.0001) %MON dynstat_eta_del2             =   1.8050754480072E-05
(PID.TID 0000.0001) %MON dynstat_uvel_max             =   3.0962836644585E-02
(PID.TID 0000.0001) %MON dynstat_uvel_min             =  -1.3826431984108E-02
(PID.TID 0000.0001) %MON dynstat_uvel_mean            =   1.9261024867540E-07
(PID.TID 0000.0001) %MON dynstat_uvel_sd              =   5.5603681096982E-03
(PID.TID 0000.0001) %MON dynstat_uvel_del2            =   7.6828825372238E-06
(PID.TID 0000.0001) %MON dynstat_vvel_max             =   8.3021951897119E-02
(PID.TID 0000.0001) %MON dynstat_vvel_min             =  -3.3962867328040E-02
(PID.TID 0000.0001) %MON dynstat_vvel_mean            =  -9.3945863528521E-09
(PID.TID 0000.0001) %MON dynstat_vvel_sd              =   1.4411039483924E-02
(PID.TID 0000.0001) %MON dynstat_vvel_del2            =   7.3964465722535E-05
(PID.TID 0000.0001) %MON dynstat_wvel_max             =   1.1464997165713E-08
(PID.TID 0000.0001) %MON dynstat_wvel_min             =  -1.0597614562139E-08
(PID.TID 0000.0001) %MON dynstat_wvel_mean            =   3.5441967661932E-21
(PID.TID 0000.0001) %MON dynstat_wvel_sd              =   5.4764751414425E-09
(PID.TID 0000.0001) %MON dynstat_wvel_del2            =   2.0021657928785E-12
(PID.TID 0000.0001) %MON dynstat_theta_max            =   2.0000000000000E+01
(PID.TID 0000.0001) %MON dynstat_theta_min            =   2.0000000000000E+01
(PID.TID 0000.0001) %MON dynstat_theta_mean           =   2.0000000000000E+01
(PID.TID 0000.0001) %MON dynstat_theta_sd             =   0.0000000000000E+00
(PID.TID 0000.0001) %MON dynstat_theta_del2           =   0.0000000000000E+00
(PID.TID 0000.0001) %MON dynstat_salt_max             =   3.0000000000000E+01
(PID.TID 0000.0001) %MON dynstat_salt_min             =   3.0000000000000E+01
(PID.TID 0000.0001) %MON dynstat_salt_mean            =   3.0000000000000E+01
(PID.TID 0000.0001) %MON dynstat_salt_sd              =   0.0000000000000E+00
(PID.TID 0000.0001) %MON dynstat_salt_del2            =   0.0000000000000E+00
(PID.TID 0000.0001) %MON trAdv_CFL_u_max              =   1.8578974089192E-03
(PID.TID 0000.0001) %MON trAdv_CFL_v_max              =   4.9816178890313E-03
(PID.TID 0000.0001) %MON trAdv_CFL_w_max              =   2.7526170372090E-09
(PID.TID 0000.0001) %MON advcfl_uvel_max              =   1.8577701986751E-03
(PID.TID 0000.0001) %MON advcfl_vvel_max              =   4.9813171138272E-03
(PID.TID 0000.0001) %MON advcfl_wvel_max              =   5.5031986395421E-09
(PID.TID 0000.0001) %MON advcfl_W_hf_max              =   0.0000000000000E+00
(PID.TID 0000.0001) %MON pe_b_mean                    =   1.8971453717046E-07
(PID.TID 0000.0001) %MON ke_max                       =   3.4426841892297E-03
(PID.TID 0000.0001) %MON ke_mean                      =   1.1730957834187E-04
(PID.TID 0000.0001) %MON ke_vol                       =   7.2000000000000E+15
(PID.TID 0000.0001) %MON vort_r_min                   =  -1.5095604835724E-06
(PID.TID 0000.0001) %MON vort_r_max                   =   2.2597951512932E-06
(PID.TID 0000.0001) %MON vort_a_mean                  =   1.0600000000000E-04
(PID.TID 0000.0001) %MON vort_a_sd                    =   3.5363039041948E-06
(PID.TID 0000.0001) %MON vort_p_mean                  =   1.1130000000000E-04
(PID.TID 0000.0001) %MON vort_p_sd                    =   4.1149596677955E-05
(PID.TID 0000.0001) %MON surfExpan_theta_mean         =   7.0854690016454E-20
(PID.TID 0000.0001) %MON surfExpan_salt_mean          =   1.0628487719562E-19
(PID.TID 0000.0001) // =======================================================
(PID.TID 0000.0001) // End MONITOR dynamic field statistics
(PID.TID 0000.0001) // =======================================================
 cg2d: Sum(rhs),rhsMax =  -4.63734642013751E-04  1.36864189395584E-01
 cg2d: Sum(rhs),rhsMax =  -4.63577719231112E-04  1.36857053174781E-01
 cg2d: Sum(rhs),rhsMax =  -4.63421220975078E-04  1.36849924814422E-01
 cg2d: Sum(rhs),rhsMax =  -4.63265146523055E-04  1.36842804332414E-01
 cg2d: Sum(rhs),rhsMax =  -4.63109495113676E-04  1.36835691746642E-01
 cg2d: Sum(rhs),rhsMax =  -4.62954266000704E-04  1.36828587074968E-01
 cg2d: Sum(rhs),rhsMax =  -4.62799458342068E-04  1.36821490335235E-01
 cg2d: Sum(rhs),rhsMax =  -4.62645071391921E-04  1.36814401545260E-01
 cg2d: Sum(rhs),rhsMax =  -4.62491104515930E-04  1.36807320722838E-01
 cg2d: Sum(rhs),rhsMax =  -4.62337557036464E-04  1.36800247885746E-01
 cg2d: Sum(rhs),rhsMax =  -4.62184428094787E-04  1.36793183051734E-01
 cg2d: Sum(rhs),rhsMax =  -4.62031716987084E-04  1.36786126238529E-01
 cg2d: Sum(rhs),rhsMax =  -4.61879422956019E-04  1.36779077463841E-01
 cg2d: Sum(rhs),rhsMax =  -4.61727545358213E-04  1.36772036745351E-01
 cg2d: Sum(rhs),rhsMax =  -4.61576083469049E-04  1.36765004100722E-01
 cg2d: Sum(rhs),rhsMax =  -4.61425036617369E-04  1.36757979547593E-01
 cg2d: Sum(rhs),rhsMax =  -4.61274404090089E-04  1.36750963103578E-01
 cg2d: Sum(rhs),rhsMax =  -4.61124185276172E-04  1.36743954786273E-01
 cg2d: Sum(rhs),rhsMax =  -4.60974379343166E-04  1.36736954613249E-01
 cg2d: Sum(rhs),rhsMax =  -4.60824985789440E-04  1.36729962602052E-01
 cg2d: Sum(rhs),rhsMax =  -4.60676003830579E-04  1.36722978770208E-01
 cg2d: Sum(rhs),rhsMax =  -4.60527432855309E-04  1.36716003135220E-01
 cg2d: Sum(rhs),rhsMax =  -4.60379272210738E-04  1.36709035714567E-01
 cg2d: Sum(rhs),rhsMax =  -4.60231521235129E-04  1.36702076525705E-01
 cg2d: Sum(rhs),rhsMax =  -4.60084179242653E-04  1.36695125586069E-01
 cg2d: Sum(rhs),rhsMax =  -4.59937245588185E-04  1.36688182913069E-01
 cg2d: Sum(rhs),rhsMax =  -4.59790719776965E-04  1.36681248524092E-01
 cg2d: Sum(rhs),rhsMax =  -4.59644601098571E-04  1.36674322436503E-01
 cg2d: Sum(rhs),rhsMax =  -4.59498888918309E-04  1.36667404667643E-01
 cg2d: Sum(rhs),rhsMax =  -4.59353582640673E-04  1.36660495234832E-01
 cg2d: Sum(rhs),rhsMax =  -4.59208681619396E-04  1.36653594155363E-01
 cg2d: Sum(rhs),rhsMax =  -4.59064185340522E-04  1.36646701446509E-01
 cg2d: Sum(rhs),rhsMax =  -4.58920093132914E-04  1.36639817125517E-01
 cg2d: Sum(rhs),rhsMax =  -4.58776404477058E-04  1.36632941209614E-01
 cg2d: Sum(rhs),rhsMax =  -4.58633118667520E-04  1.36626073716002E-01
 cg2d: Sum(rhs),rhsMax =  -4.58490235271036E-04  1.36619214661858E-01
 cg2d: Sum(rhs),rhsMax =  -4.58347753571246E-04  1.36612364064338E-01
 cg2d: Sum(rhs),rhsMax =  -4.58205673058674E-04  1.36605521940573E-01
 cg2d: Sum(rhs),rhsMax =  -4.58063993185866E-04  1.36598688307672E-01
 cg2d: Sum(rhs),rhsMax =  -4.57922713441456E-04  1.36591863182719E-01
 cg2d: Sum(rhs),rhsMax =  -4.57781833187657E-04  1.36585046582775E-01
 cg2d: Sum(rhs),rhsMax =  -4.57641351964569E-04  1.36578238524877E-01
 cg2d: Sum(rhs),rhsMax =  -4.57501269081478E-04  1.36571439026040E-01
 cg2d: Sum(rhs),rhsMax =  -4.57361584113152E-04  1.36564648103252E-01
 cg2d: Sum(rhs),rhsMax =  -4.57222296549917E-04  1.36557865773481E-01
 cg2d: Sum(rhs),rhsMax =  -4.57083405858312E-04  1.36551092053669E-01
 cg2d: Sum(rhs),rhsMax =  -4.56944911414126E-04  1.36544326960735E-01
 cg2d: Sum(rhs),rhsMax =  -4.56806812785823E-04  1.36537570511573E-01
 cg2d: Sum(rhs),rhsMax =  -4.56669109530980E-04  1.36530822723054E-01
 cg2d: Sum(rhs),rhsMax =  -4.56531801018956E-04  1.36524083612026E-01
 cg2d: Sum(rhs),rhsMax =  -4.56394886822618E-04  1.36517353195311E-01
 cg2d: Sum(rhs),rhsMax =  -4.56258366449860E-04  1.36510631489709E-01
 cg2d: Sum(rhs),rhsMax =  -4.56122239356738E-04  1.36503918511994E-01
 cg2d: Sum(rhs),rhsMax =  -4.55986505171004E-04  1.36497214278918E-01
 cg2d: Sum(rhs),rhsMax =  -4.55851163290342E-04  1.36490518807206E-01
 cg2d: Sum(rhs),rhsMax =  -4.55716213336343E-04  1.36483832113563E-01
 cg2d: Sum(rhs),rhsMax =  -4.55581654826662E-04  1.36477154214666E-01
 cg2d: Sum(rhs),rhsMax =  -4.55447487371028E-04  1.36470485127169E-01
 cg2d: Sum(rhs),rhsMax =  -4.55313710340552E-04  1.36463824867704E-01
 cg2d: Sum(rhs),rhsMax =  -4.55180323498527E-04  1.36457173452875E-01
 cg2d: Sum(rhs),rhsMax =  -4.55047326177310E-04  1.36450530899263E-01
 cg2d: Sum(rhs),rhsMax =  -4.54914718099440E-04  1.36443897223426E-01
 cg2d: Sum(rhs),rhsMax =  -4.54782498788386E-04  1.36437272441896E-01
 cg2d: Sum(rhs),rhsMax =  -4.54650667767712E-04  1.36430656571182E-01
 cg2d: Sum(rhs),rhsMax =  -4.54519224685039E-04  1.36424049627766E-01
 cg2d: Sum(rhs),rhsMax =  -4.54388169115567E-04  1.36417451628108E-01
 cg2d: Sum(rhs),rhsMax =  -4.54257500695153E-04  1.36410862588643E-01
 cg2d: Sum(rhs),rhsMax =  -4.54127218890715E-04  1.36404282525780E-01
 cg2d: Sum(rhs),rhsMax =  -4.53997323432046E-04  1.36397711455905E-01
 cg2d: Sum(rhs),rhsMax =  -4.53867813849485E-04  1.36391149395378E-01
 cg2d: Sum(rhs),rhsMax =  -4.53738689771581E-04  1.36384596360536E-01
 cg2d: Sum(rhs),rhsMax =  -4.53609950870422E-04  1.36378052367689E-01
(PID.TID 0000.0001)      cg2d_init_res =   9.54484814631262E-04
(PID.TID 0000.0001)      cg2d_iters(min,last) =      -1      75
(PID.TID 0000.0001)      cg2d_last_res =   8.78178721203582E-08
(PID.TID 0000.0001) // =======================================================
(PID.TID 0000.0001) // Begin MONITOR dynamic field statistics
(PID.TID 0000.0001) // =======================================================
(PID.TID 0000.0001) %MON time_tsnumber                =                 11448
(PID.TID 0000.0001) %MON time_secondsf                =   1.3737600000000E+07
(PID.TID 0000.0001) %MON dynstat_eta_max              =   4.9114930820710E-02
(PID.TID 0000.0001) %MON dynstat_eta_min              =  -1.7733284254114E-02
(PID.TID 0000.0001) %MON dynstat_eta_mean             =   3.0920986735008E-07
(PID.TID 0000.0001) %MON dynstat_eta_sd               =   1.3777243850821E-02
(PID.TID 0000.0001) %MON dynstat_eta_del2             =   1.8004649654165E-05
(PID.TID 0000.0001) %MON dynstat_uvel_max             =   3.0813043581481E-02
(PID.TID 0000.0001) %MON dynstat_uvel_min             =  -1.3732731277195E-02
(PID.TID 0000.0001) %MON dynstat_uvel_mean            =   1.7034475081231E-07
(PID.TID 0000.0001) %MON dynstat_uvel_sd              =   5.5861454487782E-03
(PID.TID 0000.0001) %MON dynstat_uvel_del2            =   7.6719393354901E-06
(PID.TID 0000.0001) %MON dynstat_vvel_max             =   8.2671553450751E-02
(PID.TID 0000.0001) %MON dynstat_vvel_min             =  -3.3954874798703E-02
(PID.TID 0000.0001) %MON dynstat_vvel_mean            =  -1.0560051931114E-08
(PID.TID 0000.0001) %MON dynstat_vvel_sd              =   1.4337472685097E-02
(PID.TID 0000.0001) %MON dynstat_vvel_del2            =   7.3692984417579E-05
(PID.TID 0000.0001) %MON dynstat_wvel_max             =   1.1123912431503E-08
(PID.TID 0000.0001) %MON dynstat_wvel_min             =  -1.0086162438965E-08
(PID.TID 0000.0001) %MON dynstat_wvel_mean            =   4.2517146741577E-22
(PID.TID 0000.0001) %MON dynstat_wvel_sd              =   5.4416646139411E-09
(PID.TID 0000.0001) %MON dynstat_wvel_del2            =   1.9883234475283E-12
(PID.TID 0000.0001) %MON dynstat_theta_max            =   2.0000000000000E+01
(PID.TID 0000.0001) %MON dynstat_theta_min            =   2.0000000000000E+01
(PID.TID 0000.0001) %MON dynstat_theta_mean           =   2.0000000000000E+01
(PID.TID 0000.0001) %MON dynstat_theta_sd             =   0.0000000000000E+00
(PID.TID 0000.0001) %MON dynstat_theta_del2           =   0.0000000000000E+00
(PID.TID 0000.0001) %MON dynstat_salt_max             =   3.0000000000000E+01
(PID.TID 0000.0001) %MON dynstat_salt_min             =   3.0000000000000E+01
(PID.TID 0000.0001) %MON dynstat_salt_mean            =   3.0000000000000E+01
(PID.TID 0000.0001) %MON dynstat_salt_sd              =   0.0000000000000E+00
(PID.TID 0000.0001) %MON dynstat_salt_del2            =   0.0000000000000E+00
(PID.TID 0000.0001) %MON trAdv_CFL_u_max              =   1.8489049132306E-03
(PID.TID 0000.0001) %MON trAdv_CFL_v_max              =   4.9605760777299E-03
(PID.TID 0000.0001) %MON trAdv_CFL_w_max              =   2.6708264286630E-09
(PID.TID 0000.0001) %MON advcfl_uvel_max              =   1.8487826148888E-03
(PID.TID 0000.0001) %MON advcfl_vvel_max              =   4.9602932070451E-03
(PID.TID 0000.0001) %MON advcfl_wvel_max              =   5.3394779671216E-09
(PID.TID 0000.0001) %MON advcfl_W_hf_max              =   0.0000000000000E+00
(PID.TID 0000.0001) %MON pe_b_mean                    =   1.8620601170440E-07
(PID.TID 0000.0001) %MON ke_max                       =   3.4146304179199E-03
(PID.TID 0000.0001) %MON ke_mean                      =   1.1641100413330E-04
(PID.TID 0000.0001) %MON ke_vol                       =   7.2000000000000E+15
(PID.TID 0000.0001) %MON vort_r_min                   =  -1.5085704171944E-06
(PID.TID 0000.0001) %MON vort_r_max                   =   2.2519209115857E-06
(PID.TID 0000.0001) %MON vort_a_mean                  =   1.0600000000000E-04
(PID.TID 0000.0001) %MON vort_a_sd                    =   3.5361754195656E-06
(PID.TID 0000.0001) %MON vort_p_mean                  =   1.1130000000000E-04
(PID.TID 0000.0001) %MON vort_p_sd                    =   4.1149716793206E-05
(PID.TID 0000.0001) %MON surfExpan_theta_mean         =   8.4762986752985E-21
(PID.TID 0000.0001) %MON surfExpan_salt_mean          =   1.2721078511567E-20
(PID.TID 0000.0001) // =======================================================
(PID.TID 0000.0001) // End MONITOR dynamic field statistics
(PID.TID 0000.0001) // =======================================================
 cg2d: Sum(rhs),rhsMax =  -4.53481596727939E-04  1.36371517433123E-01
 cg2d: Sum(rhs),rhsMax =  -4.53353626921678E-04  1.36364991573101E-01
 cg2d: Sum(rhs),rhsMax =  -4.53226041148024E-04  1.36358474803859E-01
 cg2d: Sum(rhs),rhsMax =  -4.53098839030635E-04  1.36351967141609E-01
 cg2d: Sum(rhs),rhsMax =  -4.52972020249107E-04  1.36345468602537E-01
 cg2d: Sum(rhs),rhsMax =  -4.52845584397444E-04  1.36338979202806E-01
 cg2d: Sum(rhs),rhsMax =  -4.52719531136203E-04  1.36332498958552E-01
 cg2d: Sum(rhs),rhsMax =  -4.52593860204861E-04  1.36326027885888E-01
 cg2d: Sum(rhs),rhsMax =  -4.52468571176727E-04  1.36319566000900E-01
 cg2d: Sum(rhs),rhsMax =  -4.52343663796831E-04  1.36313113319649E-01
 cg2d: Sum(rhs),rhsMax =  -4.52219137666704E-04  1.36306669858174E-01
 cg2d: Sum(rhs),rhsMax =  -4.52094992599628E-04  1.36300235632484E-01
 cg2d: Sum(rhs),rhsMax =  -4.51971228094821E-04  1.36293810658565E-01
 cg2d: Sum(rhs),rhsMax =  -4.51847844039401E-04  1.36287394952380E-01
 cg2d: Sum(rhs),rhsMax =  -4.51724840099779E-04  1.36280988529863E-01
 cg2d: Sum(rhs),rhsMax =  -4.51602215885855E-04  1.36274591406925E-01
 cg2d: Sum(rhs),rhsMax =  -4.51479971242962E-04  1.36268203599450E-01
 cg2d: Sum(rhs),rhsMax =  -4.51358105788420E-04  1.36261825123298E-01
 cg2d: Sum(rhs),rhsMax =  -4.51236619187753E-04  1.36255455994304E-01
 cg2d: Sum(rhs),rhsMax =  -4.51115511295256E-04  1.36249096228276E-01
 cg2d: Sum(rhs),rhsMax =  -4.50994781841595E-04  1.36242745840997E-01
 cg2d: Sum(rhs),rhsMax =  -4.50874430537431E-04  1.36236404848223E-01
 cg2d: Sum(rhs),rhsMax =  -4.50754457092815E-04  1.36230073265690E-01
 cg2d: Sum(rhs),rhsMax =  -4.50634861347742E-04  1.36223751109100E-01
 cg2d: Sum(rhs),rhsMax =  -4.50515643025748E-04  1.36217438394137E-01
 cg2d: Sum(rhs),rhsMax =  -4.50396801861770E-04  1.36211135136454E-01
 cg2d: Sum(rhs),rhsMax =  -4.50278337598649E-04  1.36204841351682E-01
 cg2d: Sum(rhs),rhsMax =  -4.50160250057300E-04  1.36198557055424E-01
 cg2d: Sum(rhs),rhsMax =  -4.50042539035181E-04  1.36192282263258E-01
 cg2d: Sum(rhs),rhsMax =  -4.49925204280289E-04  1.36186016990735E-01
 cg2d: Sum(rhs),rhsMax =  -4.49808245582218E-04  1.36179761253383E-01
 cg2d: Sum(rhs),rhsMax =  -4.49691662728596E-04  1.36173515066700E-01
 cg2d: Sum(rhs),rhsMax =  -4.49575455616269E-04  1.36167278446164E-01
 cg2d: Sum(rhs),rhsMax =  -4.49459623962439E-04  1.36161051407220E-01
 cg2d: Sum(rhs),rhsMax =  -4.49344167566585E-04  1.36154833965292E-01
 cg2d: Sum(rhs),rhsMax =  -4.49229086244606E-04  1.36148626135775E-01
 cg2d: Sum(rhs),rhsMax =  -4.49114379894657E-04  1.36142427934042E-01
 cg2d: Sum(rhs),rhsMax =  -4.49000048264221E-04  1.36136239375436E-01
 cg2d: Sum(rhs),rhsMax =  -4.48886091255295E-04  1.36130060475274E-01
 cg2d: Sum(rhs),rhsMax =  -4.48772508673806E-04  1.36123891248850E-01
 cg2d: Sum(rhs),rhsMax =  -4.48659300278918E-04  1.36117731711427E-01
 cg2d: Sum(rhs),rhsMax =  -4.48546466086627E-04  1.36111581878249E-01
 cg2d: Sum(rhs),rhsMax =  -4.48434005819897E-04  1.36105441764525E-01
 cg2d: Sum(rhs),rhsMax =  -4.48321919341397E-04  1.36099311385445E-01
 cg2d: Sum(rhs),rhsMax =  -4.48210206596169E-04  1.36093190756168E-01
 cg2d: Sum(rhs),rhsMax =  -4.48098867403720E-04  1.36087079891829E-01
 cg2d: Sum(rhs),rhsMax =  -4.47987901613137E-04  1.36080978807537E-01
 cg2d: Sum(rhs),rhsMax =  -4.47877309162759E-04  1.36074887518372E-01
 cg2d: Sum(rhs),rhsMax =  -4.47767089816389E-04  1.36068806039389E-01
 cg2d: Sum(rhs),rhsMax =  -4.47657243568662E-04  1.36062734385619E-01
 cg2d: Sum(rhs),rhsMax =  -4.47547770292458E-04  1.36056672572061E-01
 cg2d: Sum(rhs),rhsMax =  -4.47438669844773E-04  1.36050620613692E-01
 cg2d: Sum(rhs),rhsMax =  -4.47329942131529E-04  1.36044578525462E-01
 cg2d: Sum(rhs),rhsMax =  -4.47221587022292E-04  1.36038546322291E-01
 cg2d: Sum(rhs),rhsMax =  -4.47113604499485E-04  1.36032524019076E-01
 cg2d: Sum(rhs),rhsMax =  -4.47005994437157E-04  1.36026511630686E-01
 cg2d: Sum(rhs),rhsMax =  -4.46898756724674E-04  1.36020509171963E-01
 cg2d: Sum(rhs),rhsMax =  -4.46791891325371E-04  1.36014516657723E-01
 cg2d: Sum(rhs),rhsMax =  -4.46685398111291E-04  1.36008534102755E-01
 cg2d: Sum(rhs),rhsMax =  -4.46579277091829E-04  1.36002561521819E-01
 cg2d: Sum(rhs),rhsMax =  -4.46473528133237E-04  1.35996598929651E-01
 cg2d: Sum(rhs),rhsMax =  -4.46368151151519E-04  1.35990646340960E-01
 cg2d: Sum(rhs),rhsMax =  -4.46263146035113E-04  1.35984703770427E-01
 cg2d: Sum(rhs),rhsMax =  -4.46158512855827E-04  1.35978771232706E-01
 cg2d: Sum(rhs),rhsMax =  -4.46054251427045E-04  1.35972848742423E-01
 cg2d: Sum(rhs),rhsMax =  -4.45950361780612E-04  1.35966936314181E-01
 cg2d: Sum(rhs),rhsMax =  -4.45846843819153E-04  1.35961033962552E-01
 cg2d: Sum(rhs),rhsMax =  -4.45743697531439E-04  1.35955141702082E-01
 cg2d: Sum(rhs),rhsMax =  -4.45640922876983E-04  1.35949259547289E-01
 cg2d: Sum(rhs),rhsMax =  -4.45538519705540E-04  1.35943387512667E-01
 cg2d: Sum(rhs),rhsMax =  -4.45436488064914E-04  1.35937525612680E-01
 cg2d: Sum(rhs),rhsMax =  -4.45334827875914E-04  1.35931673861766E-01
(PID.TID 0000.0001)      cg2d_init_res =   9.44473097342747E-04
(PID.TID 0000.0001)      cg2d_iters(min,last) =      -1      75
(PID.TID 0000.0001)      cg2d_last_res =   8.37507249576461E-08
(PID.TID 0000.0001) // =======================================================
(PID.TID 0000.0001) // Begin MONITOR dynamic field statistics
(PID.TID 0000.0001) // =======================================================
(PID.TID 0000.0001) %MON time_tsnumber                =                 11520
(PID.TID 0000.0001) %MON time_secondsf                =   1.3824000000000E+07
(PID.TID 0000.0001) %MON dynstat_eta_max              =   4.8414150093963E-02
(PID.TID 0000.0001) %MON dynstat_eta_min              =  -1.8070606378675E-02
(PID.TID 0000.0001) %MON dynstat_eta_mean             =   3.0259369681135E-07
(PID.TID 0000.0001) %MON dynstat_eta_sd               =   1.3691681791951E-02
(PID.TID 0000.0001) %MON dynstat_eta_del2             =   1.7957096949654E-05
(PID.TID 0000.0001) %MON dynstat_uvel_max             =   3.0669913666299E-02
(PID.TID 0000.0001) %MON dynstat_uvel_min             =  -1.3652360490323E-02
(PID.TID 0000.0001) %MON dynstat_uvel_mean            =   1.4628498283198E-07
(PID.TID 0000.0001) %MON dynstat_uvel_sd              =   5.6248121142063E-03
(PID.TID 0000.0001) %MON dynstat_uvel_del2            =   7.6689094632262E-06
(PID.TID 0000.0001) %MON dynstat_vvel_max             =   8.2344772200795E-02
(PID.TID 0000.0001) %MON dynstat_vvel_min             =  -3.3916895152183E-02
(PID.TID 0000.0001) %MON dynstat_vvel_mean            =  -1.1615258049397E-08
(PID.TID 0000.0001) %MON dynstat_vvel_sd              =   1.4268739021341E-02
(PID.TID 0000.0001) %MON dynstat_vvel_del2            =   7.3426515109160E-05
(PID.TID 0000.0001) %MON dynstat_wvel_max             =   1.1269619225204E-08
(PID.TID 0000.0001) %MON dynstat_wvel_min             =  -9.5793203008361E-09
(PID.TID 0000.0001) %MON dynstat_wvel_mean            =  -1.8194229293537E-21
(PID.TID 0000.0001) %MON dynstat_wvel_sd              =   5.4103187505995E-09
(PID.TID 0000.0001) %MON dynstat_wvel_del2            =   1.9716098960532E-12
(PID.TID 0000.0001) %MON dynstat_theta_max            =   2.0000000000000E+01
(PID.TID 0000.0001) %MON dynstat_theta_min            =   2.0000000000000E+01
(PID.TID 0000.0001) %MON dynstat_theta_mean           =   2.0000000000000E+01
(PID.TID 0000.0001) %MON dynstat_theta_sd             =   0.0000000000000E+00
(PID.TID 0000.0001) %MON dynstat_theta_del2           =   0.0000000000000E+00
(PID.TID 0000.0001) %MON dynstat_salt_max             =   3.0000000000000E+01
(PID.TID 0000.0001) %MON dynstat_salt_min             =   3.0000000000000E+01
(PID.TID 0000.0001) %MON dynstat_salt_mean            =   3.0000000000000E+01
(PID.TID 0000.0001) %MON dynstat_salt_sd              =   0.0000000000000E+00
(PID.TID 0000.0001) %MON dynstat_salt_del2            =   0.0000000000000E+00
(PID.TID 0000.0001) %MON trAdv_CFL_u_max              =   1.8403109551395E-03
(PID.TID 0000.0001) %MON trAdv_CFL_v_max              =   4.9409478430092E-03
(PID.TID 0000.0001) %MON trAdv_CFL_w_max              =   2.7030903218765E-09
(PID.TID 0000.0001) %MON advcfl_uvel_max              =   1.8401948199779E-03
(PID.TID 0000.0001) %MON advcfl_vvel_max              =   4.9406863320477E-03
(PID.TID 0000.0001) %MON advcfl_wvel_max              =   5.4094172280980E-09
(PID.TID 0000.0001) %MON advcfl_W_hf_max              =   0.0000000000000E+00
(PID.TID 0000.0001) %MON pe_b_mean                    =   1.8390036952631E-07
(PID.TID 0000.0001) %MON ke_max                       =   3.3886209028672E-03
(PID.TID 0000.0001) %MON ke_mean                      =   1.1565741709539E-04
(PID.TID 0000.0001) %MON ke_vol                       =   7.2000000000000E+15
(PID.TID 0000.0001) %MON vort_r_min                   =  -1.5073485576810E-06
(PID.TID 0000.0001) %MON vort_r_max                   =   2.2449998626840E-06
(PID.TID 0000.0001) %MON vort_a_mean                  =   1.0600000000000E-04
(PID.TID 0000.0001) %MON vort_a_sd                    =   3.5360531147658E-06
(PID.TID 0000.0001) %MON vort_p_mean                  =   1.1130000000000E-04
(PID.TID 0000.0001) %MON vort_p_sd                    =   4.1149849702173E-05
(PID.TID 0000.0001) %MON surfExpan_theta_mean         =  -3.6412788833534E-20
(PID.TID 0000.0001) %MON surfExpan_salt_mean          =  -5.4621788573665E-20
(PID.TID 0000.0001) // =======================================================
(PID.TID 0000.0001) // End MONITOR dynamic field statistics
(PID.TID 0000.0001) // =======================================================
 cg2d: Sum(rhs),rhsMax =  -4.45233539157799E-04  1.35925832274334E-01
 cg2d: Sum(rhs),rhsMax =  -4.45132621795209E-04  1.35920000864768E-01
 cg2d: Sum(rhs),rhsMax =  -4.45032075811399E-04  1.35914179647424E-01
 cg2d: Sum(rhs),rhsMax =  -4.44931901242149E-04  1.35908368636630E-01
 cg2d: Sum(rhs),rhsMax =  -4.44832097901748E-04  1.35902567846687E-01
 cg2d: Sum(rhs),rhsMax =  -4.44732665867887E-04  1.35896777291869E-01
 cg2d: Sum(rhs),rhsMax =  -4.44633605082309E-04  1.35890996986422E-01
 cg2d: Sum(rhs),rhsMax =  -4.44534915491527E-04  1.35885226944566E-01
 cg2d: Sum(rhs),rhsMax =  -4.44436597114055E-04  1.35879467180491E-01
 cg2d: Sum(rhs),rhsMax =  -4.44338649944392E-04  1.35873717708361E-01
 cg2d: Sum(rhs),rhsMax =  -4.44241073933162E-04  1.35867978542313E-01
 cg2d: Sum(rhs),rhsMax =  -4.44143869051405E-04  1.35862249696455E-01
 cg2d: Sum(rhs),rhsMax =  -4.44047035360169E-04  1.35856531184868E-01
 cg2d: Sum(rhs),rhsMax =  -4.43950572687838E-04  1.35850823021606E-01
 cg2d: Sum(rhs),rhsMax =  -4.43854481169975E-04  1.35845125220695E-01
 cg2d: Sum(rhs),rhsMax =  -4.43758760650340E-04  1.35839437796133E-01
 cg2d: Sum(rhs),rhsMax =  -4.43663411252334E-04  1.35833760761890E-01
 cg2d: Sum(rhs),rhsMax =  -4.43568432879196E-04  1.35828094131909E-01
 cg2d: Sum(rhs),rhsMax =  -4.43473825536292E-04  1.35822437920105E-01
 cg2d: Sum(rhs),rhsMax =  -4.43379589225155E-04  1.35816792140364E-01
 cg2d: Sum(rhs),rhsMax =  -4.43285723836097E-04  1.35811156806546E-01
 cg2d: Sum(rhs),rhsMax =  -4.43192229447071E-04  1.35805531932482E-01
 cg2d: Sum(rhs),rhsMax =  -4.43099106099170E-04  1.35799917531976E-01
 cg2d: Sum(rhs),rhsMax =  -4.43006353601807E-04  1.35794313618803E-01
 cg2d: Sum(rhs),rhsMax =  -4.42913972082251E-04  1.35788720206711E-01
 cg2d: Sum(rhs),rhsMax =  -4.42821961523229E-04  1.35783137309418E-01
 cg2d: Sum(rhs),rhsMax =  -4.42730321797277E-04  1.35777564940617E-01
 cg2d: Sum(rhs),rhsMax =  -4.42639053010658E-04  1.35772003113970E-01
 cg2d: Sum(rhs),rhsMax =  -4.42548155093057E-04  1.35766451843115E-01
 cg2d: Sum(rhs),rhsMax =  -4.42457628007813E-04  1.35760911141656E-01
 cg2d: Sum(rhs),rhsMax =  -4.42367471759695E-04  1.35755381023174E-01
 cg2d: Sum(rhs),rhsMax =  -4.42277686240430E-04  1.35749861501220E-01
 cg2d: Sum(rhs),rhsMax =  -4.42188271594319E-04  1.35744352589315E-01
 cg2d: Sum(rhs),rhsMax =  -4.42099227675376E-04  1.35738854300955E-01
 cg2d: Sum(rhs),rhsMax =  -4.42010554539682E-04  1.35733366649606E-01
 cg2d: Sum(rhs),rhsMax =  -4.41922252096842E-04  1.35727889648706E-01
 cg2d: Sum(rhs),rhsMax =  -4.41834320312994E-04  1.35722423311664E-01
 cg2d: Sum(rhs),rhsMax =  -4.41746759234023E-04  1.35716967651860E-01
 cg2d: Sum(rhs),rhsMax =  -4.41659568703294E-04  1.35711522682650E-01
 cg2d: Sum(rhs),rhsMax =  -4.41572748825622E-04  1.35706088417357E-01
 cg2d: Sum(rhs),rhsMax =  -4.41486299509138E-04  1.35700664869276E-01
 cg2d: Sum(rhs),rhsMax =  -4.41400220666514E-04  1.35695252051677E-01
 cg2d: Sum(rhs),rhsMax =  -4.41314512353169E-04  1.35689849977796E-01
 cg2d: Sum(rhs),rhsMax =  -4.41229174525428E-04  1.35684458660846E-01
 cg2d: Sum(rhs),rhsMax =  -4.41144207021464E-04  1.35679078114007E-01
 cg2d: Sum(rhs),rhsMax =  -4.41059609968590E-04  1.35673708350434E-01
 cg2d: Sum(rhs),rhsMax =  -4.40975383182899E-04  1.35668349383252E-01
 cg2d: Sum(rhs),rhsMax =  -4.40891526639742E-04  1.35663001225557E-01
 cg2d: Sum(rhs),rhsMax =  -4.40808040358604E-04  1.35657663890415E-01
 cg2d: Sum(rhs),rhsMax =  -4.40724924222455E-04  1.35652337390867E-01
 cg2d: Sum(rhs),rhsMax =  -4.40642178202431E-04  1.35647021739922E-01
 cg2d: Sum(rhs),rhsMax =  -4.40559802229563E-04  1.35641716950561E-01
 cg2d: Sum(rhs),rhsMax =  -4.40477796272104E-04  1.35636423035738E-01
 cg2d: Sum(rhs),rhsMax =  -4.40396160333920E-04  1.35631140008376E-01
 cg2d: Sum(rhs),rhsMax =  -4.40314894179465E-04  1.35625867881370E-01
 cg2d: Sum(rhs),rhsMax =  -4.40233997789209E-04  1.35620606667587E-01
 cg2d: Sum(rhs),rhsMax =  -4.40153471166087E-04  1.35615356379863E-01
 cg2d: Sum(rhs),rhsMax =  -4.40073314229798E-04  1.35610117031007E-01
 cg2d: Sum(rhs),rhsMax =  -4.39993526851025E-04  1.35604888633799E-01
 cg2d: Sum(rhs),rhsMax =  -4.39914109039858E-04  1.35599671200988E-01
 cg2d: Sum(rhs),rhsMax =  -4.39835060620229E-04  1.35594464745297E-01
 cg2d: Sum(rhs),rhsMax =  -4.39756381536797E-04  1.35589269279418E-01
 cg2d: Sum(rhs),rhsMax =  -4.39640233527161E-04  1.35584084990220E-01
 cg2d: Sum(rhs),rhsMax =  -4.39524554942904E-04  1.35578911558406E-01
 cg2d: Sum(rhs),rhsMax =  -4.39409387375540E-04  1.35573749140981E-01
 cg2d: Sum(rhs),rhsMax =  -4.39294719165041E-04  1.35568597760301E-01
 cg2d: Sum(rhs),rhsMax =  -4.39180551496400E-04  1.35563457433231E-01
 cg2d: Sum(rhs),rhsMax =  -4.39066884937152E-04  1.35558328172070E-01
 cg2d: Sum(rhs),rhsMax =  -4.38953719216117E-04  1.35553209988494E-01
 cg2d: Sum(rhs),rhsMax =  -4.38841054084194E-04  1.35548102894920E-01
 cg2d: Sum(rhs),rhsMax =  -4.38728889195707E-04  1.35543006904009E-01
 cg2d: Sum(rhs),rhsMax =  -4.38617224968530E-04  1.35537922028296E-01
(PID.TID 0000.0001)      cg2d_init_res =   9.34718742407815E-04
(PID.TID 0000.0001)      cg2d_iters(min,last) =      -1      74
(PID.TID 0000.0001)      cg2d_last_res =   9.83827289493647E-08
(PID.TID 0000.0001) // =======================================================
(PID.TID 0000.0001) // Begin MONITOR dynamic field statistics
(PID.TID 0000.0001) // =======================================================
(PID.TID 0000.0001) %MON time_tsnumber                =                 11592
(PID.TID 0000.0001) %MON time_secondsf                =   1.3910400000000E+07
(PID.TID 0000.0001) %MON dynstat_eta_max              =   4.7740769475401E-02
(PID.TID 0000.0001) %MON dynstat_eta_min              =  -1.8435334504745E-02
(PID.TID 0000.0001) %MON dynstat_eta_mean             =   2.9715987754410E-07
(PID.TID 0000.0001) %MON dynstat_eta_sd               =   1.3651010158689E-02
(PID.TID 0000.0001) %MON dynstat_eta_del2             =   1.7908539715291E-05
(PID.TID 0000.0001) %MON dynstat_uvel_max             =   3.0534898901560E-02
(PID.TID 0000.0001) %MON dynstat_uvel_min             =  -1.3586107495738E-02
(PID.TID 0000.0001) %MON dynstat_uvel_mean            =   1.2074352366191E-07
(PID.TID 0000.0001) %MON dynstat_uvel_sd              =   5.6758003131276E-03
(PID.TID 0000.0001) %MON dynstat_uvel_del2            =   7.6742468341521E-06
(PID.TID 0000.0001) %MON dynstat_vvel_max             =   8.2045564842004E-02
(PID.TID 0000.0001) %MON dynstat_vvel_min             =  -3.3849050215238E-02
(PID.TID 0000.0001) %MON dynstat_vvel_mean            =  -1.2550236538948E-08
(PID.TID 0000.0001) %MON dynstat_vvel_sd              =   1.4205456483415E-02
(PID.TID 0000.0001) %MON dynstat_vvel_del2            =   7.3167855332201E-05
(PID.TID 0000.0001) %MON dynstat_wvel_max             =   1.1750290360269E-08
(PID.TID 0000.0001) %MON dynstat_wvel_min             =  -9.0385788574349E-09
(PID.TID 0000.0001) %MON dynstat_wvel_mean            =   3.1931641488983E-21
(PID.TID 0000.0001) %MON dynstat_wvel_sd              =   5.3826803028205E-09
(PID.TID 0000.0001) %MON dynstat_wvel_del2            =   1.9577245778204E-12
(PID.TID 0000.0001) %MON dynstat_theta_max            =   2.0000000000000E+01
(PID.TID 0000.0001) %MON dynstat_theta_min            =   2.0000000000000E+01
(PID.TID 0000.0001) %MON dynstat_theta_mean           =   2.0000000000000E+01
(PID.TID 0000.0001) %MON dynstat_theta_sd             =   0.0000000000000E+00
(PID.TID 0000.0001) %MON dynstat_theta_del2           =   0.0000000000000E+00
(PID.TID 0000.0001) %MON dynstat_salt_max             =   3.0000000000000E+01
(PID.TID 0000.0001) %MON dynstat_salt_min             =   3.0000000000000E+01
(PID.TID 0000.0001) %MON dynstat_salt_mean            =   3.0000000000000E+01
(PID.TID 0000.0001) %MON dynstat_salt_sd              =   0.0000000000000E+00
(PID.TID 0000.0001) %MON dynstat_salt_del2            =   0.0000000000000E+00
(PID.TID 0000.0001) %MON trAdv_CFL_u_max              =   1.8322027384588E-03
(PID.TID 0000.0001) %MON trAdv_CFL_v_max              =   4.9229709042918E-03
(PID.TID 0000.0001) %MON trAdv_CFL_w_max              =   2.8185329706146E-09
(PID.TID 0000.0001) %MON advcfl_uvel_max              =   1.8320939340936E-03
(PID.TID 0000.0001) %MON advcfl_vvel_max              =   4.9227338905202E-03
(PID.TID 0000.0001) %MON advcfl_wvel_max              =   5.6401393729291E-09
(PID.TID 0000.0001) %MON advcfl_W_hf_max              =   0.0000000000000E+00
(PID.TID 0000.0001) %MON pe_b_mean                    =   1.8280942695055E-07
(PID.TID 0000.0001) %MON ke_max                       =   3.3649558726834E-03
(PID.TID 0000.0001) %MON ke_mean                      =   1.1505477069646E-04
(PID.TID 0000.0001) %MON ke_vol                       =   7.2000000000000E+15
(PID.TID 0000.0001) %MON vort_r_min                   =  -1.5062582981394E-06
(PID.TID 0000.0001) %MON vort_r_max                   =   2.2391183690818E-06
(PID.TID 0000.0001) %MON vort_a_mean                  =   1.0600000000000E-04
(PID.TID 0000.0001) %MON vort_a_sd                    =   3.5359381283047E-06
(PID.TID 0000.0001) %MON vort_p_mean                  =   1.1130000000000E-04
(PID.TID 0000.0001) %MON vort_p_sd                    =   4.1149994022770E-05
(PID.TID 0000.0001) %MON surfExpan_theta_mean         =   6.3870691451800E-20
(PID.TID 0000.0001) %MON surfExpan_salt_mean          =   9.5804376777488E-20
(PID.TID 0000.0001) // =======================================================
(PID.TID 0000.0001) // End MONITOR dynamic field statistics
(PID.TID 0000.0001) // =======================================================
 cg2d: Sum(rhs),rhsMax =  -4.38506061553332E-04  1.35532848280157E-01
 cg2d: Sum(rhs),rhsMax =  -4.38395399347010E-04  1.35527785671899E-01
 cg2d: Sum(rhs),rhsMax =  -4.38285238524468E-04  1.35522734215799E-01
 cg2d: Sum(rhs),rhsMax =  -4.38175579354498E-04  1.35517693924128E-01
 cg2d: Sum(rhs),rhsMax =  -4.38066422026200E-04  1.35512664809137E-01
 cg2d: Sum(rhs),rhsMax =  -4.37957766627804E-04  1.35507646883058E-01
 cg2d: Sum(rhs),rhsMax =  -4.37849613295634E-04  1.35502640158093E-01
 cg2d: Sum(rhs),rhsMax =  -4.37741962338418E-04  1.35497644646414E-01
 cg2d: Sum(rhs),rhsMax =  -4.37634813757692E-04  1.35492660360157E-01
 cg2d: Sum(rhs),rhsMax =  -4.37528167868186E-04  1.35487687311426E-01
 cg2d: Sum(rhs),rhsMax =  -4.37422024836076E-04  1.35482725512299E-01
 cg2d: Sum(rhs),rhsMax =  -4.37316384770400E-04  1.35477774974819E-01
 cg2d: Sum(rhs),rhsMax =  -4.37211248011163E-04  1.35472835711006E-01
 cg2d: Sum(rhs),rhsMax =  -4.37106614511962E-04  1.35467907732846E-01
 cg2d: Sum(rhs),rhsMax =  -4.37002484487642E-04  1.35462991052301E-01
 cg2d: Sum(rhs),rhsMax =  -4.36898858150200E-04  1.35458085681298E-01
 cg2d: Sum(rhs),rhsMax =  -4.36795735647099E-04  1.35453191631739E-01
 cg2d: Sum(rhs),rhsMax =  -4.36693117124139E-04  1.35448308915492E-01
 cg2d: Sum(rhs),rhsMax =  -4.36591002518480E-04  1.35443437544398E-01
 cg2d: Sum(rhs),rhsMax =  -4.36489392316216E-04  1.35438577530264E-01
 cg2d: Sum(rhs),rhsMax =  -4.36388286414625E-04  1.35433728884874E-01
 cg2d: Sum(rhs),rhsMax =  -4.36287685041300E-04  1.35428891619976E-01
 cg2d: Sum(rhs),rhsMax =  -4.36187588247983E-04  1.35424065747289E-01
 cg2d: Sum(rhs),rhsMax =  -4.36087996172718E-04  1.35419251278507E-01
 cg2d: Sum(rhs),rhsMax =  -4.35988909079255E-04  1.35414448225287E-01
 cg2d: Sum(rhs),rhsMax =  -4.35890326866594E-04  1.35409656599262E-01
 cg2d: Sum(rhs),rhsMax =  -4.35792249728524E-04  1.35404876412032E-01
 cg2d: Sum(rhs),rhsMax =  -4.35694677732547E-04  1.35400107675168E-01
 cg2d: Sum(rhs),rhsMax =  -4.35597610985688E-04  1.35395350400210E-01
 cg2d: Sum(rhs),rhsMax =  -4.35501049504965E-04  1.35390604598670E-01
 cg2d: Sum(rhs),rhsMax =  -4.35404993417186E-04  1.35385870282028E-01
 cg2d: Sum(rhs),rhsMax =  -4.35309442786139E-04  1.35381147461733E-01
 cg2d: Sum(rhs),rhsMax =  -4.35214397593390E-04  1.35376436149208E-01
 cg2d: Sum(rhs),rhsMax =  -4.35119858029340E-04  1.35371736355840E-01
 cg2d: Sum(rhs),rhsMax =  -4.35025823997956E-04  1.35367048092993E-01
 cg2d: Sum(rhs),rhsMax =  -4.34932295557679E-04  1.35362371371993E-01
 cg2d: Sum(rhs),rhsMax =  -4.34839272799214E-04  1.35357706204142E-01
 cg2d: Sum(rhs),rhsMax =  -4.34746755605654E-04  1.35353052600709E-01
 cg2d: Sum(rhs),rhsMax =  -4.34654744079905E-04  1.35348410572933E-01
 cg2d: Sum(rhs),rhsMax =  -4.34563238250504E-04  1.35343780132023E-01
 cg2d: Sum(rhs),rhsMax =  -4.34472238004341E-04  1.35339161289158E-01
 cg2d: Sum(rhs),rhsMax =  -4.34381743300138E-04  1.35334554055486E-01
 cg2d: Sum(rhs),rhsMax =  -4.34291754171091E-04  1.35329958442125E-01
 cg2d: Sum(rhs),rhsMax =  -4.34202270522269E-04  1.35325374460162E-01
 cg2d: Sum(rhs),rhsMax =  -4.34113292362385E-04  1.35320802120655E-01
 cg2d: Sum(rhs),rhsMax =  -4.34024819460420E-04  1.35316241434630E-01
 cg2d: Sum(rhs),rhsMax =  -4.33936851952189E-04  1.35311692413084E-01
 cg2d: Sum(rhs),rhsMax =  -4.33849389625445E-04  1.35307155066983E-01
 cg2d: Sum(rhs),rhsMax =  -4.33762432342536E-04  1.35302629407261E-01
 cg2d: Sum(rhs),rhsMax =  -4.33675980034475E-04  1.35298115444824E-01
 cg2d: Sum(rhs),rhsMax =  -4.33590032581783E-04  1.35293613190547E-01
 cg2d: Sum(rhs),rhsMax =  -4.33504589840239E-04  1.35289122655272E-01
 cg2d: Sum(rhs),rhsMax =  -4.33419651687783E-04  1.35284643849813E-01
 cg2d: Sum(rhs),rhsMax =  -4.33335217891248E-04  1.35280176784954E-01
 cg2d: Sum(rhs),rhsMax =  -4.33251288231309E-04  1.35275721471445E-01
 cg2d: Sum(rhs),rhsMax =  -4.33167862562086E-04  1.35271277920008E-01
 cg2d: Sum(rhs),rhsMax =  -4.33084940801357E-04  1.35266846141334E-01
 cg2d: Sum(rhs),rhsMax =  -4.33002522515970E-04  1.35262426146082E-01
 cg2d: Sum(rhs),rhsMax =  -4.32920607680201E-04  1.35258017944883E-01
 cg2d: Sum(rhs),rhsMax =  -4.32839195920733E-04  1.35253621548334E-01
 cg2d: Sum(rhs),rhsMax =  -4.32758287027180E-04  1.35249236967003E-01
 cg2d: Sum(rhs),rhsMax =  -4.32677880720059E-04  1.35244864211428E-01
 cg2d: Sum(rhs),rhsMax =  -4.32597976691252E-04  1.35240503292115E-01
 cg2d: Sum(rhs),rhsMax =  -4.32518574628908E-04  1.35236154219539E-01
 cg2d: Sum(rhs),rhsMax =  -4.32439674263881E-04  1.35231817004144E-01
 cg2d: Sum(rhs),rhsMax =  -4.32361275200909E-04  1.35227491656345E-01
 cg2d: Sum(rhs),rhsMax =  -4.32283377186732E-04  1.35223178186524E-01
 cg2d: Sum(rhs),rhsMax =  -4.32205979723791E-04  1.35218876605033E-01
 cg2d: Sum(rhs),rhsMax =  -4.32129082550274E-04  1.35214586922193E-01
 cg2d: Sum(rhs),rhsMax =  -4.32052685239896E-04  1.35210309148294E-01
 cg2d: Sum(rhs),rhsMax =  -4.31976787338124E-04  1.35206043293597E-01
 cg2d: Sum(rhs),rhsMax =  -4.31901388535048E-04  1.35201789368327E-01
(PID.TID 0000.0001)      cg2d_init_res =   9.25480780137637E-04
(PID.TID 0000.0001)      cg2d_iters(min,last) =      -1      74
(PID.TID 0000.0001)      cg2d_last_res =   8.52156904493540E-08
(PID.TID 0000.0001) // =======================================================
(PID.TID 0000.0001) // Begin MONITOR dynamic field statistics
(PID.TID 0000.0001) // =======================================================
(PID.TID 0000.0001) %MON time_tsnumber                =                 11664
(PID.TID 0000.0001) %MON time_secondsf                =   1.3996800000000E+07
(PID.TID 0000.0001) %MON dynstat_eta_max              =   4.7084687028493E-02
(PID.TID 0000.0001) %MON dynstat_eta_min              =  -1.8823015317826E-02
(PID.TID 0000.0001) %MON dynstat_eta_mean             =   2.9190941058548E-07
(PID.TID 0000.0001) %MON dynstat_eta_sd               =   1.3655553700719E-02
(PID.TID 0000.0001) %MON dynstat_eta_del2             =   1.7859427567085E-05
(PID.TID 0000.0001) %MON dynstat_uvel_max             =   3.0409342847915E-02
(PID.TID 0000.0001) %MON dynstat_uvel_min             =  -1.3534619527286E-02
(PID.TID 0000.0001) %MON dynstat_uvel_mean            =   9.4046328625635E-08
(PID.TID 0000.0001) %MON dynstat_uvel_sd              =   5.7383195230251E-03
(PID.TID 0000.0001) %MON dynstat_uvel_del2            =   7.6881867992091E-06
(PID.TID 0000.0001) %MON dynstat_vvel_max             =   8.1779224710788E-02
(PID.TID 0000.0001) %MON dynstat_vvel_min             =  -3.3751824406359E-02
(PID.TID 0000.0001) %MON dynstat_vvel_mean            =  -1.3356603809717E-08
(PID.TID 0000.0001) %MON dynstat_vvel_sd              =   1.4148188795039E-02
(PID.TID 0000.0001) %MON dynstat_vvel_del2            =   7.2919731063166E-05
(PID.TID 0000.0001) %MON dynstat_wvel_max             =   1.2208386913117E-08
(PID.TID 0000.0001) %MON dynstat_wvel_min             =  -8.4866105479887E-09
(PID.TID 0000.0001) %MON dynstat_wvel_mean            =  -1.4233693137713E-21
(PID.TID 0000.0001) %MON dynstat_wvel_sd              =   5.3587986900619E-09
(PID.TID 0000.0001) %MON dynstat_wvel_del2            =   1.9365975624595E-12
(PID.TID 0000.0001) %MON dynstat_theta_max            =   2.0000000000000E+01
(PID.TID 0000.0001) %MON dynstat_theta_min            =   2.0000000000000E+01
(PID.TID 0000.0001) %MON dynstat_theta_mean           =   2.0000000000000E+01
(PID.TID 0000.0001) %MON dynstat_theta_sd             =   0.0000000000000E+00
(PID.TID 0000.0001) %MON dynstat_theta_del2           =   0.0000000000000E+00
(PID.TID 0000.0001) %MON dynstat_salt_max             =   3.0000000000000E+01
(PID.TID 0000.0001) %MON dynstat_salt_min             =   3.0000000000000E+01
(PID.TID 0000.0001) %MON dynstat_salt_mean            =   3.0000000000000E+01
(PID.TID 0000.0001) %MON dynstat_salt_sd              =   0.0000000000000E+00
(PID.TID 0000.0001) %MON dynstat_salt_del2            =   0.0000000000000E+00
(PID.TID 0000.0001) %MON trAdv_CFL_u_max              =   1.8246609735468E-03
(PID.TID 0000.0001) %MON trAdv_CFL_v_max              =   4.9069448983756E-03
(PID.TID 0000.0001) %MON trAdv_CFL_w_max              =   2.9285257900832E-09
(PID.TID 0000.0001) %MON advcfl_uvel_max              =   1.8245605708749E-03
(PID.TID 0000.0001) %MON advcfl_vvel_max              =   4.9067534826473E-03
(PID.TID 0000.0001) %MON advcfl_wvel_max              =   5.8600257182959E-09
(PID.TID 0000.0001) %MON advcfl_W_hf_max              =   0.0000000000000E+00
(PID.TID 0000.0001) %MON pe_b_mean                    =   1.8293113816623E-07
(PID.TID 0000.0001) %MON ke_max                       =   3.3439005123851E-03
(PID.TID 0000.0001) %MON ke_mean                      =   1.1460728225923E-04
(PID.TID 0000.0001) %MON ke_vol                       =   7.2000000000000E+15
(PID.TID 0000.0001) %MON vort_r_min                   =  -1.5049308748621E-06
(PID.TID 0000.0001) %MON vort_r_max                   =   2.2343485703041E-06
(PID.TID 0000.0001) %MON vort_a_mean                  =   1.0600000000000E-04
(PID.TID 0000.0001) %MON vort_a_sd                    =   3.5358315109216E-06
(PID.TID 0000.0001) %MON vort_p_mean                  =   1.1130000000000E-04
(PID.TID 0000.0001) %MON vort_p_sd                    =   4.1150148275077E-05
(PID.TID 0000.0001) %MON surfExpan_theta_mean         =  -2.8491500516894E-20
(PID.TID 0000.0001) %MON surfExpan_salt_mean          =  -4.2732671722155E-20
(PID.TID 0000.0001) // =======================================================
(PID.TID 0000.0001) // End MONITOR dynamic field statistics
(PID.TID 0000.0001) // =======================================================
 cg2d: Sum(rhs),rhsMax =  -4.31826488309541E-04  1.35197547382683E-01
 cg2d: Sum(rhs),rhsMax =  -4.31752086226321E-04  1.35193317346831E-01
 cg2d: Sum(rhs),rhsMax =  -4.31678181744411E-04  1.35189099270906E-01
 cg2d: Sum(rhs),rhsMax =  -4.31604774442217E-04  1.35184893165011E-01
 cg2d: Sum(rhs),rhsMax =  -4.31531863928773E-04  1.35180699039220E-01
 cg2d: Sum(rhs),rhsMax =  -4.31459449562826E-04  1.35176516903574E-01
 cg2d: Sum(rhs),rhsMax =  -4.31387530710710E-04  1.35172346768085E-01
 cg2d: Sum(rhs),rhsMax =  -4.31316106994489E-04  1.35168188642731E-01
 cg2d: Sum(rhs),rhsMax =  -4.31245177746370E-04  1.35164042537461E-01
 cg2d: Sum(rhs),rhsMax =  -4.31174742453971E-04  1.35159908462193E-01
 cg2d: Sum(rhs),rhsMax =  -4.31104800449084E-04  1.35155786426811E-01
 cg2d: Sum(rhs),rhsMax =  -4.31035351128061E-04  1.35151676441171E-01
 cg2d: Sum(rhs),rhsMax =  -4.30966393867925E-04  1.35147578515096E-01
 cg2d: Sum(rhs),rhsMax =  -4.30897928031015E-04  1.35143492658379E-01
 cg2d: Sum(rhs),rhsMax =  -4.30794445136093E-04  1.35139418919853E-01
 cg2d: Sum(rhs),rhsMax =  -4.30691661371927E-04  1.35135357239227E-01
 cg2d: Sum(rhs),rhsMax =  -4.30589535943553E-04  1.35131307650784E-01
 cg2d: Sum(rhs),rhsMax =  -4.30488079632930E-04  1.35127270168821E-01
 cg2d: Sum(rhs),rhsMax =  -4.30387292117185E-04  1.35123244806895E-01
 cg2d: Sum(rhs),rhsMax =  -4.30287173020918E-04  1.35119231572934E-01
 cg2d: Sum(rhs),rhsMax =  -4.30187721056766E-04  1.35115230475715E-01
 cg2d: Sum(rhs),rhsMax =  -4.30088934734664E-04  1.35111241524787E-01
 cg2d: Sum(rhs),rhsMax =  -4.29990812744026E-04  1.35107264729897E-01
 cg2d: Sum(rhs),rhsMax =  -4.29893353811825E-04  1.35103300100617E-01
 cg2d: Sum(rhs),rhsMax =  -4.29796556778438E-04  1.35099347646387E-01
 cg2d: Sum(rhs),rhsMax =  -4.29700420330662E-04  1.35095407376585E-01
 cg2d: Sum(rhs),rhsMax =  -4.29604943433752E-04  1.35091479300568E-01
 cg2d: Sum(rhs),rhsMax =  -4.29510124617283E-04  1.35087563427680E-01
 cg2d: Sum(rhs),rhsMax =  -4.29415962570993E-04  1.35083659767244E-01
 cg2d: Sum(rhs),rhsMax =  -4.29322455915449E-04  1.35079768328556E-01
 cg2d: Sum(rhs),rhsMax =  -4.29229603338591E-04  1.35075889120883E-01
 cg2d: Sum(rhs),rhsMax =  -4.29137403339100E-04  1.35072022153453E-01
 cg2d: Sum(rhs),rhsMax =  -4.29045854549442E-04  1.35068167435462E-01
 cg2d: Sum(rhs),rhsMax =  -4.28954955561145E-04  1.35064324976073E-01
 cg2d: Sum(rhs),rhsMax =  -4.28864704778179E-04  1.35060494784413E-01
 cg2d: Sum(rhs),rhsMax =  -4.28775100769369E-04  1.35056676869579E-01
 cg2d: Sum(rhs),rhsMax =  -4.28686142021743E-04  1.35052871240638E-01
 cg2d: Sum(rhs),rhsMax =  -4.28597826902606E-04  1.35049077906625E-01
 cg2d: Sum(rhs),rhsMax =  -4.28510153796475E-04  1.35045296876545E-01
 cg2d: Sum(rhs),rhsMax =  -4.28423121187069E-04  1.35041528159372E-01
 cg2d: Sum(rhs),rhsMax =  -4.28336727432588E-04  1.35037771764047E-01
 cg2d: Sum(rhs),rhsMax =  -4.28250970736186E-04  1.35034027699479E-01
 cg2d: Sum(rhs),rhsMax =  -4.28165849430309E-04  1.35030295974546E-01
 cg2d: Sum(rhs),rhsMax =  -4.28081361888652E-04  1.35026576598092E-01
 cg2d: Sum(rhs),rhsMax =  -4.27997506215864E-04  1.35022869578933E-01
 cg2d: Sum(rhs),rhsMax =  -4.27914280618318E-04  1.35019174925848E-01
 cg2d: Sum(rhs),rhsMax =  -4.27831683300752E-04  1.35015492647587E-01
 cg2d: Sum(rhs),rhsMax =  -4.27749712302852E-04  1.35011822752868E-01
 cg2d: Sum(rhs),rhsMax =  -4.27668365798596E-04  1.35008165250377E-01
 cg2d: Sum(rhs),rhsMax =  -4.27587641877302E-04  1.35004520148769E-01
 cg2d: Sum(rhs),rhsMax =  -4.27507538464732E-04  1.35000887456664E-01
 cg2d: Sum(rhs),rhsMax =  -4.27428053672176E-04  1.34997267182655E-01
 cg2d: Sum(rhs),rhsMax =  -4.27349185283418E-04  1.34993659335298E-01
 cg2d: Sum(rhs),rhsMax =  -4.27270931318583E-04  1.34990063923121E-01
 cg2d: Sum(rhs),rhsMax =  -4.27193289588002E-04  1.34986480954617E-01
 cg2d: Sum(rhs),rhsMax =  -4.27116258035139E-04  1.34982910438249E-01
 cg2d: Sum(rhs),rhsMax =  -4.27039834365133E-04  1.34979352382447E-01
 cg2d: Sum(rhs),rhsMax =  -4.26964016373617E-04  1.34975806795608E-01
 cg2d: Sum(rhs),rhsMax =  -4.26888801727937E-04  1.34972273686099E-01
 cg2d: Sum(rhs),rhsMax =  -4.26814188172368E-04  1.34968753062255E-01
 cg2d: Sum(rhs),rhsMax =  -4.26740173342981E-04  1.34965244932376E-01
 cg2d: Sum(rhs),rhsMax =  -4.26666754722697E-04  1.34961749304733E-01
 cg2d: Sum(rhs),rhsMax =  -4.26593929947234E-04  1.34958266187563E-01
 cg2d: Sum(rhs),rhsMax =  -4.26521696503450E-04  1.34954795589072E-01
 cg2d: Sum(rhs),rhsMax =  -4.26450051848091E-04  1.34951337517433E-01
 cg2d: Sum(rhs),rhsMax =  -4.26378993391451E-04  1.34947891980787E-01
 cg2d: Sum(rhs),rhsMax =  -4.26308518471739E-04  1.34944458987244E-01
 cg2d: Sum(rhs),rhsMax =  -4.26238624365687E-04  1.34941038544880E-01
 cg2d: Sum(rhs),rhsMax =  -4.26169308475110E-04  1.34937630661740E-01
 cg2d: Sum(rhs),rhsMax =  -4.26100567925082E-04  1.34934235345836E-01
 cg2d: Sum(rhs),rhsMax =  -4.26032399853864E-04  1.34930852605147E-01
 cg2d: Sum(rhs),rhsMax =  -4.25964801494891E-04  1.34927482447623E-01
(PID.TID 0000.0001)      cg2d_init_res =   9.16988133531145E-04
(PID.TID 0000.0001)      cg2d_iters(min,last) =      -1      73
(PID.TID 0000.0001)      cg2d_last_res =   8.78131264258282E-08
(PID.TID 0000.0001) // =======================================================
(PID.TID 0000.0001) // Begin MONITOR dynamic field statistics
(PID.TID 0000.0001) // =======================================================
(PID.TID 0000.0001) %MON time_tsnumber                =                 11736
(PID.TID 0000.0001) %MON time_secondsf                =   1.4083200000000E+07
(PID.TID 0000.0001) %MON dynstat_eta_max              =   4.6453127282499E-02
(PID.TID 0000.0001) %MON dynstat_eta_min              =  -1.9228975052955E-02
(PID.TID 0000.0001) %MON dynstat_eta_mean             =   2.8731941942996E-07
(PID.TID 0000.0001) %MON dynstat_eta_sd               =   1.3704681861241E-02
(PID.TID 0000.0001) %MON dynstat_eta_del2             =   1.7810212153033E-05
(PID.TID 0000.0001) %MON dynstat_uvel_max             =   3.0294465685836E-02
(PID.TID 0000.0001) %MON dynstat_uvel_min             =  -1.3498396394848E-02
(PID.TID 0000.0001) %MON dynstat_uvel_mean            =   6.6532871006129E-08
(PID.TID 0000.0001) %MON dynstat_uvel_sd              =   5.8113776453605E-03
(PID.TID 0000.0001) %MON dynstat_uvel_del2            =   7.7107247596709E-06
(PID.TID 0000.0001) %MON dynstat_vvel_max             =   8.1567103114498E-02
(PID.TID 0000.0001) %MON dynstat_vvel_min             =  -3.3626057208108E-02
(PID.TID 0000.0001) %MON dynstat_vvel_mean            =  -1.4027384501559E-08
(PID.TID 0000.0001) %MON dynstat_vvel_sd              =   1.4097441282510E-02
(PID.TID 0000.0001) %MON dynstat_vvel_del2            =   7.2684763762680E-05
(PID.TID 0000.0001) %MON dynstat_wvel_max             =   1.2613221794745E-08
(PID.TID 0000.0001) %MON dynstat_wvel_min             =  -7.9162195994286E-09
(PID.TID 0000.0001) %MON dynstat_wvel_mean            =   1.1735076239145E-21
(PID.TID 0000.0001) %MON dynstat_wvel_sd              =   5.3385278884158E-09
(PID.TID 0000.0001) %MON dynstat_wvel_del2            =   1.9119932195233E-12
(PID.TID 0000.0001) %MON dynstat_theta_max            =   2.0000000000000E+01
(PID.TID 0000.0001) %MON dynstat_theta_min            =   2.0000000000000E+01
(PID.TID 0000.0001) %MON dynstat_theta_mean           =   2.0000000000000E+01
(PID.TID 0000.0001) %MON dynstat_theta_sd             =   0.0000000000000E+00
(PID.TID 0000.0001) %MON dynstat_theta_del2           =   0.0000000000000E+00
(PID.TID 0000.0001) %MON dynstat_salt_max             =   3.0000000000000E+01
(PID.TID 0000.0001) %MON dynstat_salt_min             =   3.0000000000000E+01
(PID.TID 0000.0001) %MON dynstat_salt_mean            =   3.0000000000000E+01
(PID.TID 0000.0001) %MON dynstat_salt_sd              =   0.0000000000000E+00
(PID.TID 0000.0001) %MON dynstat_salt_del2            =   0.0000000000000E+00
(PID.TID 0000.0001) %MON trAdv_CFL_u_max              =   1.8177589797536E-03
(PID.TID 0000.0001) %MON trAdv_CFL_v_max              =   4.8941883500613E-03
(PID.TID 0000.0001) %MON trAdv_CFL_w_max              =   3.0257496044913E-09
(PID.TID 0000.0001) %MON advcfl_uvel_max              =   1.8176679411502E-03
(PID.TID 0000.0001) %MON advcfl_vvel_max              =   4.8940261868699E-03
(PID.TID 0000.0001) %MON advcfl_wvel_max              =   6.0543464614777E-09
(PID.TID 0000.0001) %MON advcfl_W_hf_max              =   0.0000000000000E+00
(PID.TID 0000.0001) %MON pe_b_mean                    =   1.8424975720538E-07
(PID.TID 0000.0001) %MON ke_max                       =   3.3256833201244E-03
(PID.TID 0000.0001) %MON ke_mean                      =   1.1431739742059E-04
(PID.TID 0000.0001) %MON ke_vol                       =   7.2000000000000E+15
(PID.TID 0000.0001) %MON vort_r_min                   =  -1.5034032270324E-06
(PID.TID 0000.0001) %MON vort_r_max                   =   2.2307476037638E-06
(PID.TID 0000.0001) %MON vort_a_mean                  =   1.0600000000000E-04
(PID.TID 0000.0001) %MON vort_a_sd                    =   3.5357342165346E-06
(PID.TID 0000.0001) %MON vort_p_mean                  =   1.1130000000000E-04
(PID.TID 0000.0001) %MON vort_p_sd                    =   4.1150310899047E-05
(PID.TID 0000.0001) %MON surfExpan_theta_mean         =   2.3480743275665E-20
(PID.TID 0000.0001) %MON surfExpan_salt_mean          =   3.5212909131764E-20
(PID.TID 0000.0001) // =======================================================
(PID.TID 0000.0001) // End MONITOR dynamic field statistics
(PID.TID 0000.0001) // =======================================================
 cg2d: Sum(rhs),rhsMax =  -4.25897769873941E-04  1.34924124881177E-01
 cg2d: Sum(rhs),rhsMax =  -4.25831301900314E-04  1.34920779913695E-01
 cg2d: Sum(rhs),rhsMax =  -4.25765394678071E-04  1.34917447553025E-01
 cg2d: Sum(rhs),rhsMax =  -4.25700045062300E-04  1.34914127806989E-01
 cg2d: Sum(rhs),rhsMax =  -4.25635249864290E-04  1.34910820683370E-01
 cg2d: Sum(rhs),rhsMax =  -4.25571006009457E-04  1.34907526189924E-01
 cg2d: Sum(rhs),rhsMax =  -4.25507310134767E-04  1.34904244334371E-01
 cg2d: Sum(rhs),rhsMax =  -4.25444158966732E-04  1.34900975124401E-01
 cg2d: Sum(rhs),rhsMax =  -4.25381549212628E-04  1.34897718567672E-01
 cg2d: Sum(rhs),rhsMax =  -4.25319477333404E-04  1.34894474671806E-01
 cg2d: Sum(rhs),rhsMax =  -4.25257939881640E-04  1.34891243444397E-01
 cg2d: Sum(rhs),rhsMax =  -4.25196933346521E-04  1.34888024893002E-01
 cg2d: Sum(rhs),rhsMax =  -4.25136454148664E-04  1.34884819025151E-01
 cg2d: Sum(rhs),rhsMax =  -4.25076498462292E-04  1.34881625848337E-01
 cg2d: Sum(rhs),rhsMax =  -4.25017062743904E-04  1.34878445370022E-01
 cg2d: Sum(rhs),rhsMax =  -4.24958143149505E-04  1.34875277597636E-01
 cg2d: Sum(rhs),rhsMax =  -4.24899735771400E-04  1.34872122538576E-01
 cg2d: Sum(rhs),rhsMax =  -4.24841836826512E-04  1.34868980200207E-01
 cg2d: Sum(rhs),rhsMax =  -4.24784442200076E-04  1.34865850589860E-01
 cg2d: Sum(rhs),rhsMax =  -4.24727547949108E-04  1.34862733714836E-01
 cg2d: Sum(rhs),rhsMax =  -4.24671149856341E-04  1.34859629582401E-01
 cg2d: Sum(rhs),rhsMax =  -4.24615243734408E-04  1.34856538199789E-01
 cg2d: Sum(rhs),rhsMax =  -4.24559825321706E-04  1.34853459574203E-01
 cg2d: Sum(rhs),rhsMax =  -4.24504890391268E-04  1.34850393712811E-01
 cg2d: Sum(rhs),rhsMax =  -4.24450434532065E-04  1.34847340622751E-01
 cg2d: Sum(rhs),rhsMax =  -4.24396453290747E-04  1.34844300311126E-01
 cg2d: Sum(rhs),rhsMax =  -4.24342942063807E-04  1.34841272785008E-01
 cg2d: Sum(rhs),rhsMax =  -4.24289896284218E-04  1.34838258051435E-01
 cg2d: Sum(rhs),rhsMax =  -4.24237311315490E-04  1.34835256117413E-01
 cg2d: Sum(rhs),rhsMax =  -4.24185182345755E-04  1.34832266989917E-01
 cg2d: Sum(rhs),rhsMax =  -4.24133504580669E-04  1.34829290675885E-01
 cg2d: Sum(rhs),rhsMax =  -4.24082273075541E-04  1.34826327182227E-01
 cg2d: Sum(rhs),rhsMax =  -4.24031482878382E-04  1.34823376515819E-01
 cg2d: Sum(rhs),rhsMax =  -4.23981128945204E-04  1.34820438683501E-01
 cg2d: Sum(rhs),rhsMax =  -4.23931206103356E-04  1.34817513692085E-01
 cg2d: Sum(rhs),rhsMax =  -4.23881709258494E-04  1.34814601548348E-01
 cg2d: Sum(rhs),rhsMax =  -4.23832633026888E-04  1.34811702259033E-01
 cg2d: Sum(rhs),rhsMax =  -4.23783972080058E-04  1.34808815830854E-01
 cg2d: Sum(rhs),rhsMax =  -4.23735720926300E-04  1.34805942270486E-01
 cg2d: Sum(rhs),rhsMax =  -4.23687874052680E-04  1.34803081584578E-01
 cg2d: Sum(rhs),rhsMax =  -4.23640425946682E-04  1.34800233779743E-01
 cg2d: Sum(rhs),rhsMax =  -4.23593370810757E-04  1.34797398862562E-01
 cg2d: Sum(rhs),rhsMax =  -4.23546702973347E-04  1.34794576839581E-01
 cg2d: Sum(rhs),rhsMax =  -4.23500416478147E-04  1.34791767717315E-01
 cg2d: Sum(rhs),rhsMax =  -4.23454505510117E-04  1.34788971502247E-01
 cg2d: Sum(rhs),rhsMax =  -4.23408964054592E-04  1.34786188200825E-01
 cg2d: Sum(rhs),rhsMax =  -4.23363785918362E-04  1.34783417819466E-01
 cg2d: Sum(rhs),rhsMax =  -4.23318965036719E-04  1.34780660364552E-01
 cg2d: Sum(rhs),rhsMax =  -4.23274495053916E-04  1.34777915842437E-01
 cg2d: Sum(rhs),rhsMax =  -4.23230369703650E-04  1.34775184259435E-01
 cg2d: Sum(rhs),rhsMax =  -4.23186582575500E-04  1.34772465621832E-01
 cg2d: Sum(rhs),rhsMax =  -4.23143127098501E-04  1.34769759935879E-01
 cg2d: Sum(rhs),rhsMax =  -4.23099996719909E-04  1.34767067207796E-01
 cg2d: Sum(rhs),rhsMax =  -4.23057184768036E-04  1.34764387443769E-01
 cg2d: Sum(rhs),rhsMax =  -4.23014684600018E-04  1.34761720649950E-01
 cg2d: Sum(rhs),rhsMax =  -4.22972489245446E-04  1.34759066832459E-01
 cg2d: Sum(rhs),rhsMax =  -4.22930591883455E-04  1.34756425997384E-01
 cg2d: Sum(rhs),rhsMax =  -4.22888985524426E-04  1.34753798150778E-01
 cg2d: Sum(rhs),rhsMax =  -4.22847663077829E-04  1.34751183298662E-01
 cg2d: Sum(rhs),rhsMax =  -4.22806617394297E-04  1.34748581447025E-01
 cg2d: Sum(rhs),rhsMax =  -4.22765841243796E-04  1.34745992601822E-01
 cg2d: Sum(rhs),rhsMax =  -4.22725327410768E-04  1.34743416768975E-01
 cg2d: Sum(rhs),rhsMax =  -4.22685068410531E-04  1.34740853954372E-01
 cg2d: Sum(rhs),rhsMax =  -4.22645056878543E-04  1.34738304163870E-01
 cg2d: Sum(rhs),rhsMax =  -4.22605285140056E-04  1.34735767403292E-01
 cg2d: Sum(rhs),rhsMax =  -4.22565745708944E-04  1.34733243678427E-01
 cg2d: Sum(rhs),rhsMax =  -4.22526430887971E-04  1.34730732995033E-01
 cg2d: Sum(rhs),rhsMax =  -4.22487332982799E-04  1.34728235358832E-01
 cg2d: Sum(rhs),rhsMax =  -4.22448444134122E-04  1.34725750775517E-01
 cg2d: Sum(rhs),rhsMax =  -4.22409756406461E-04  1.34723279250745E-01
 cg2d: Sum(rhs),rhsMax =  -4.22371261949112E-04  1.34720820790139E-01
 cg2d: Sum(rhs),rhsMax =  -4.22332952632001E-04  1.34718375399292E-01
(PID.TID 0000.0001)      cg2d_init_res =   9.09424942585650E-04
(PID.TID 0000.0001)      cg2d_iters(min,last) =      -1      73
(PID.TID 0000.0001)      cg2d_last_res =   7.59551862586191E-08
(PID.TID 0000.0001) // =======================================================
(PID.TID 0000.0001) // Begin MONITOR dynamic field statistics
(PID.TID 0000.0001) // =======================================================
(PID.TID 0000.0001) %MON time_tsnumber                =                 11808
(PID.TID 0000.0001) %MON time_secondsf                =   1.4169600000000E+07
(PID.TID 0000.0001) %MON dynstat_eta_max              =   4.5853343750240E-02
(PID.TID 0000.0001) %MON dynstat_eta_min              =  -1.9648379535931E-02
(PID.TID 0000.0001) %MON dynstat_eta_mean             =   2.8444922505381E-07
(PID.TID 0000.0001) %MON dynstat_eta_sd               =   1.3796841282846E-02
(PID.TID 0000.0001) %MON dynstat_eta_del2             =   1.7761343027083E-05
(PID.TID 0000.0001) %MON dynstat_uvel_max             =   3.0191350830385E-02
(PID.TID 0000.0001) %MON dynstat_uvel_min             =  -1.3477785572697E-02
(PID.TID 0000.0001) %MON dynstat_uvel_mean            =   3.8546885129251E-08
(PID.TID 0000.0001) %MON dynstat_uvel_sd              =   5.8938090734979E-03
(PID.TID 0000.0001) %MON dynstat_uvel_del2            =   7.7416066424886E-06
(PID.TID 0000.0001) %MON dynstat_vvel_max             =   8.1391327700384E-02
(PID.TID 0000.0001) %MON dynstat_vvel_min             =  -3.3472930873175E-02
(PID.TID 0000.0001) %MON dynstat_vvel_mean            =  -1.4557490590948E-08
(PID.TID 0000.0001) %MON dynstat_vvel_sd              =   1.4053656841702E-02
(PID.TID 0000.0001) %MON dynstat_vvel_del2            =   7.2465437427471E-05
(PID.TID 0000.0001) %MON dynstat_wvel_max             =   1.2972182554222E-08
(PID.TID 0000.0001) %MON dynstat_wvel_min             =  -7.3277069401229E-09
(PID.TID 0000.0001) %MON dynstat_wvel_mean            =  -3.0589631529033E-21
(PID.TID 0000.0001) %MON dynstat_wvel_sd              =   5.3215292383310E-09
(PID.TID 0000.0001) %MON dynstat_wvel_del2            =   1.8865428009885E-12
(PID.TID 0000.0001) %MON dynstat_theta_max            =   2.0000000000000E+01
(PID.TID 0000.0001) %MON dynstat_theta_min            =   2.0000000000000E+01
(PID.TID 0000.0001) %MON dynstat_theta_mean           =   2.0000000000000E+01
(PID.TID 0000.0001) %MON dynstat_theta_sd             =   0.0000000000000E+00
(PID.TID 0000.0001) %MON dynstat_theta_del2           =   0.0000000000000E+00
(PID.TID 0000.0001) %MON dynstat_salt_max             =   3.0000000000000E+01
(PID.TID 0000.0001) %MON dynstat_salt_min             =   3.0000000000000E+01
(PID.TID 0000.0001) %MON dynstat_salt_mean            =   3.0000000000000E+01
(PID.TID 0000.0001) %MON dynstat_salt_sd              =   0.0000000000000E+00
(PID.TID 0000.0001) %MON dynstat_salt_del2            =   0.0000000000000E+00
(PID.TID 0000.0001) %MON trAdv_CFL_u_max              =   1.8115618809230E-03
(PID.TID 0000.0001) %MON trAdv_CFL_v_max              =   4.8836105969446E-03
(PID.TID 0000.0001) %MON trAdv_CFL_w_max              =   3.1119524905225E-09
(PID.TID 0000.0001) %MON advcfl_uvel_max              =   1.8114810498231E-03
(PID.TID 0000.0001) %MON advcfl_vvel_max              =   4.8834796620230E-03
(PID.TID 0000.0001) %MON advcfl_wvel_max              =   6.2266476260265E-09
(PID.TID 0000.0001) %MON advcfl_W_hf_max              =   0.0000000000000E+00
(PID.TID 0000.0001) %MON pe_b_mean                    =   1.8673612570512E-07
(PID.TID 0000.0001) %MON ke_max                       =   3.3104949327312E-03
(PID.TID 0000.0001) %MON ke_mean                      =   1.1418577587692E-04
(PID.TID 0000.0001) %MON ke_vol                       =   7.2000000000000E+15
(PID.TID 0000.0001) %MON vort_r_min                   =  -1.5017133217895E-06
(PID.TID 0000.0001) %MON vort_r_max                   =   2.2283570064595E-06
(PID.TID 0000.0001) %MON vort_a_mean                  =   1.0600000000000E-04
(PID.TID 0000.0001) %MON vort_a_sd                    =   3.5356470940134E-06
(PID.TID 0000.0001) %MON vort_p_mean                  =   1.1130000000000E-04
(PID.TID 0000.0001) %MON vort_p_sd                    =   4.1150480273636E-05
(PID.TID 0000.0001) %MON surfExpan_theta_mean         =  -6.1150181214960E-20
(PID.TID 0000.0001) %MON surfExpan_salt_mean          =  -9.1720177132338E-20
(PID.TID 0000.0001) // =======================================================
(PID.TID 0000.0001) // End MONITOR dynamic field statistics
(PID.TID 0000.0001) // =======================================================
 cg2d: Sum(rhs),rhsMax =  -4.22294820535550E-04  1.34715943083760E-01
 cg2d: Sum(rhs),rhsMax =  -4.22256857410538E-04  1.34713523849072E-01
 cg2d: Sum(rhs),rhsMax =  -4.22188330682667E-04  1.34711117597317E-01
 cg2d: Sum(rhs),rhsMax =  -4.22120025872809E-04  1.34708724528804E-01
 cg2d: Sum(rhs),rhsMax =  -4.22051947216072E-04  1.34706344565434E-01
 cg2d: Sum(rhs),rhsMax =  -4.21984076287109E-04  1.34703977707013E-01
 cg2d: Sum(rhs),rhsMax =  -4.21916402802711E-04  1.34701623958927E-01
 cg2d: Sum(rhs),rhsMax =  -4.21848916145277E-04  1.34699283324481E-01
 cg2d: Sum(rhs),rhsMax =  -4.21781605002581E-04  1.34696955808360E-01
 cg2d: Sum(rhs),rhsMax =  -4.21714458079495E-04  1.34694641416011E-01
 cg2d: Sum(rhs),rhsMax =  -4.21647463922163E-04  1.34692340152814E-01
 cg2d: Sum(rhs),rhsMax =  -4.21580611266002E-04  1.34690052023969E-01
 cg2d: Sum(rhs),rhsMax =  -4.21513888633786E-04  1.34687777034573E-01
 cg2d: Sum(rhs),rhsMax =  -4.21447284705854E-04  1.34685515189687E-01
 cg2d: Sum(rhs),rhsMax =  -4.21380787925662E-04  1.34683266494378E-01
 cg2d: Sum(rhs),rhsMax =  -4.21314386830645E-04  1.34681030953705E-01
 cg2d: Sum(rhs),rhsMax =  -4.21248069946155E-04  1.34678808572710E-01
 cg2d: Sum(rhs),rhsMax =  -4.21181825644334E-04  1.34676599356411E-01
 cg2d: Sum(rhs),rhsMax =  -4.21115642431382E-04  1.34674403309789E-01
 cg2d: Sum(rhs),rhsMax =  -4.21049508723579E-04  1.34672220437784E-01
 cg2d: Sum(rhs),rhsMax =  -4.20983413026819E-04  1.34670050745294E-01
 cg2d: Sum(rhs),rhsMax =  -4.20917343699527E-04  1.34667894237179E-01
 cg2d: Sum(rhs),rhsMax =  -4.20851289229875E-04  1.34665750918259E-01
 cg2d: Sum(rhs),rhsMax =  -4.20785238063796E-04  1.34663620793319E-01
 cg2d: Sum(rhs),rhsMax =  -4.20719178735082E-04  1.34661503867116E-01
 cg2d: Sum(rhs),rhsMax =  -4.20653099630844E-04  1.34659400144372E-01
 cg2d: Sum(rhs),rhsMax =  -4.20586989419219E-04  1.34657309629785E-01
 cg2d: Sum(rhs),rhsMax =  -4.20520836496648E-04  1.34655232328014E-01
 cg2d: Sum(rhs),rhsMax =  -4.20454629583005E-04  1.34653168243695E-01
 cg2d: Sum(rhs),rhsMax =  -4.20388357150053E-04  1.34651117381421E-01
 cg2d: Sum(rhs),rhsMax =  -4.20322008014260E-04  1.34649079745757E-01
 cg2d: Sum(rhs),rhsMax =  -4.20255570809498E-04  1.34647055341232E-01
 cg2d: Sum(rhs),rhsMax =  -4.20189034425392E-04  1.34645044172339E-01
 cg2d: Sum(rhs),rhsMax =  -4.20122387661456E-04  1.34643046243539E-01
 cg2d: Sum(rhs),rhsMax =  -4.20055619444014E-04  1.34641061559259E-01
 cg2d: Sum(rhs),rhsMax =  -4.19988718666818E-04  1.34639090123891E-01
 cg2d: Sum(rhs),rhsMax =  -4.19921674546481E-04  1.34637131941797E-01
 cg2d: Sum(rhs),rhsMax =  -4.19854476114954E-04  1.34635187017305E-01
 cg2d: Sum(rhs),rhsMax =  -4.19787112715643E-04  1.34633255354710E-01
 cg2d: Sum(rhs),rhsMax =  -4.19719573630401E-04  1.34631336958272E-01
 cg2d: Sum(rhs),rhsMax =  -4.19651848271869E-04  1.34629431832219E-01
 cg2d: Sum(rhs),rhsMax =  -4.19583926251765E-04  1.34627539980746E-01
 cg2d: Sum(rhs),rhsMax =  -4.19515797095735E-04  1.34625661408013E-01
 cg2d: Sum(rhs),rhsMax =  -4.19447450748365E-04  1.34623796118148E-01
 cg2d: Sum(rhs),rhsMax =  -4.19378876902754E-04  1.34621944115245E-01
 cg2d: Sum(rhs),rhsMax =  -4.19310065760801E-04  1.34620105403363E-01
 cg2d: Sum(rhs),rhsMax =  -4.19241007357620E-04  1.34618279986531E-01
 cg2d: Sum(rhs),rhsMax =  -4.19171691944409E-04  1.34616467868741E-01
 cg2d: Sum(rhs),rhsMax =  -4.19102110047884E-04  1.34614669053953E-01
 cg2d: Sum(rhs),rhsMax =  -4.19032252105453E-04  1.34612883546095E-01
 cg2d: Sum(rhs),rhsMax =  -4.18962108910491E-04  1.34611111349058E-01
 cg2d: Sum(rhs),rhsMax =  -4.18891671266340E-04  1.34609352466705E-01
 cg2d: Sum(rhs),rhsMax =  -4.18820930315832E-04  1.34607606902860E-01
 cg2d: Sum(rhs),rhsMax =  -4.18749877001709E-04  1.34605874661317E-01
 cg2d: Sum(rhs),rhsMax =  -4.18678502882974E-04  1.34604155745834E-01
 cg2d: Sum(rhs),rhsMax =  -4.18606799346304E-04  1.34602450160139E-01
 cg2d: Sum(rhs),rhsMax =  -4.18534758146031E-04  1.34600757907923E-01
 cg2d: Sum(rhs),rhsMax =  -4.18462371108883E-04  1.34599078992845E-01
 cg2d: Sum(rhs),rhsMax =  -4.18389630187476E-04  1.34597413418532E-01
 cg2d: Sum(rhs),rhsMax =  -4.18316527642648E-04  1.34595761188574E-01
 cg2d: Sum(rhs),rhsMax =  -4.18243055874748E-04  1.34594122306530E-01
 cg2d: Sum(rhs),rhsMax =  -4.18169207481814E-04  1.34592496775927E-01
 cg2d: Sum(rhs),rhsMax =  -4.18094975100538E-04  1.34590884600254E-01
 cg2d: Sum(rhs),rhsMax =  -4.18020351839164E-04  1.34589285782970E-01
 cg2d: Sum(rhs),rhsMax =  -4.17945330718621E-04  1.34587700327499E-01
 cg2d: Sum(rhs),rhsMax =  -4.17869905010948E-04  1.34586128237234E-01
 cg2d: Sum(rhs),rhsMax =  -4.17794068295005E-04  1.34584569515530E-01
 cg2d: Sum(rhs),rhsMax =  -4.17717814111122E-04  1.34583024165713E-01
 cg2d: Sum(rhs),rhsMax =  -4.17641136422846E-04  1.34581492191071E-01
 cg2d: Sum(rhs),rhsMax =  -4.17564029183174E-04  1.34579973594864E-01
 cg2d: Sum(rhs),rhsMax =  -4.17486486655514E-04  1.34578468380313E-01
 cg2d: Sum(rhs),rhsMax =  -4.17408503153009E-04  1.34576976550609E-01
(PID.TID 0000.0001)      cg2d_init_res =   9.02917216888678E-04
(PID.TID 0000.0001)      cg2d_iters(min,last) =      -1      72
(PID.TID 0000.0001)      cg2d_last_res =   9.98985180784406E-08
(PID.TID 0000.0001) // =======================================================
(PID.TID 0000.0001) // Begin MONITOR dynamic field statistics
(PID.TID 0000.0001) // =======================================================
(PID.TID 0000.0001) %MON time_tsnumber                =                 11880
(PID.TID 0000.0001) %MON time_secondsf                =   1.4256000000000E+07
(PID.TID 0000.0001) %MON dynstat_eta_max              =   4.5292093845595E-02
(PID.TID 0000.0001) %MON dynstat_eta_min              =  -2.0076298722448E-02
(PID.TID 0000.0001) %MON dynstat_eta_mean             =   2.8081201239519E-07
(PID.TID 0000.0001) %MON dynstat_eta_sd               =   1.3929635421851E-02
(PID.TID 0000.0001) %MON dynstat_eta_del2             =   1.7713263627892E-05
(PID.TID 0000.0001) %MON dynstat_uvel_max             =   3.0100933564805E-02
(PID.TID 0000.0001) %MON dynstat_uvel_min             =  -1.3472978608654E-02
(PID.TID 0000.0001) %MON dynstat_uvel_mean            =   1.0435833028996E-08
(PID.TID 0000.0001) %MON dynstat_uvel_sd              =   5.9843074414400E-03
(PID.TID 0000.0001) %MON dynstat_uvel_del2            =   7.7803320506013E-06
(PID.TID 0000.0001) %MON dynstat_vvel_max             =   8.1254014602202E-02
(PID.TID 0000.0001) %MON dynstat_vvel_min             =  -3.3293953823404E-02
(PID.TID 0000.0001) %MON dynstat_vvel_mean            =  -1.4940824081875E-08
(PID.TID 0000.0001) %MON dynstat_vvel_sd              =   1.4017211933643E-02
(PID.TID 0000.0001) %MON dynstat_vvel_del2            =   7.2264066035240E-05
(PID.TID 0000.0001) %MON dynstat_wvel_max             =   1.3295926650098E-08
(PID.TID 0000.0001) %MON dynstat_wvel_min             =  -6.7392381932586E-09
(PID.TID 0000.0001) %MON dynstat_wvel_mean            =   4.7554552414416E-21
(PID.TID 0000.0001) %MON dynstat_wvel_sd              =   5.3072917059832E-09
(PID.TID 0000.0001) %MON dynstat_wvel_del2            =   1.8614857575108E-12
(PID.TID 0000.0001) %MON dynstat_theta_max            =   2.0000000000000E+01
(PID.TID 0000.0001) %MON dynstat_theta_min            =   2.0000000000000E+01
(PID.TID 0000.0001) %MON dynstat_theta_mean           =   2.0000000000000E+01
(PID.TID 0000.0001) %MON dynstat_theta_sd             =   0.0000000000000E+00
(PID.TID 0000.0001) %MON dynstat_theta_del2           =   0.0000000000000E+00
(PID.TID 0000.0001) %MON dynstat_salt_max             =   3.0000000000000E+01
(PID.TID 0000.0001) %MON dynstat_salt_min             =   3.0000000000000E+01
(PID.TID 0000.0001) %MON dynstat_salt_mean            =   3.0000000000000E+01
(PID.TID 0000.0001) %MON dynstat_salt_sd              =   0.0000000000000E+00
(PID.TID 0000.0001) %MON dynstat_salt_del2            =   0.0000000000000E+00
(PID.TID 0000.0001) %MON trAdv_CFL_u_max              =   1.8061259216705E-03
(PID.TID 0000.0001) %MON trAdv_CFL_v_max              =   4.8753390286842E-03
(PID.TID 0000.0001) %MON trAdv_CFL_w_max              =   3.1901625446859E-09
(PID.TID 0000.0001) %MON advcfl_uvel_max              =   1.8060560138883E-03
(PID.TID 0000.0001) %MON advcfl_vvel_max              =   4.8752408761321E-03
(PID.TID 0000.0001) %MON advcfl_wvel_max              =   6.3820447920472E-09
(PID.TID 0000.0001) %MON advcfl_W_hf_max              =   0.0000000000000E+00
(PID.TID 0000.0001) %MON pe_b_mean                    =   1.9034808294630E-07
(PID.TID 0000.0001) %MON ke_max                       =   3.2984873490327E-03
(PID.TID 0000.0001) %MON ke_mean                      =   1.1421129825712E-04
(PID.TID 0000.0001) %MON ke_vol                       =   7.2000000000000E+15
(PID.TID 0000.0001) %MON vort_r_min                   =  -1.4998996448586E-06
(PID.TID 0000.0001) %MON vort_r_max                   =   2.2272023462437E-06
(PID.TID 0000.0001) %MON vort_a_mean                  =   1.0600000000000E-04
(PID.TID 0000.0001) %MON vort_a_sd                    =   3.5355708799154E-06
(PID.TID 0000.0001) %MON vort_p_mean                  =   1.1130000000000E-04
(PID.TID 0000.0001) %MON vort_p_sd                    =   4.1150654735289E-05
(PID.TID 0000.0001) %MON surfExpan_theta_mean         =   9.5126829870019E-20
(PID.TID 0000.0001) %MON surfExpan_salt_mean          =   1.4267982351157E-19
(PID.TID 0000.0001) // =======================================================
(PID.TID 0000.0001) // End MONITOR dynamic field statistics
(PID.TID 0000.0001) // =======================================================
 cg2d: Sum(rhs),rhsMax =  -4.17330073226952E-04  1.34575498108907E-01
 cg2d: Sum(rhs),rhsMax =  -4.17251191513333E-04  1.34574033058332E-01
 cg2d: Sum(rhs),rhsMax =  -4.17203301012461E-04  1.34572581494755E-01
 cg2d: Sum(rhs),rhsMax =  -4.17155025667621E-04  1.34571143254316E-01
 cg2d: Sum(rhs),rhsMax =  -4.17106358312114E-04  1.34569718400044E-01
 cg2d: Sum(rhs),rhsMax =  -4.17057298350934E-04  1.34568306946758E-01
 cg2d: Sum(rhs),rhsMax =  -4.17007840179587E-04  1.34566908898264E-01
 cg2d: Sum(rhs),rhsMax =  -4.16957979608505E-04  1.34565524258846E-01
 cg2d: Sum(rhs),rhsMax =  -4.16907713080806E-04  1.34564153031575E-01
 cg2d: Sum(rhs),rhsMax =  -4.16857036873542E-04  1.34562795218967E-01
 cg2d: Sum(rhs),rhsMax =  -4.16805947439745E-04  1.34561450823689E-01
 cg2d: Sum(rhs),rhsMax =  -4.16754441162954E-04  1.34560119848588E-01
 cg2d: Sum(rhs),rhsMax =  -4.16702514558664E-04  1.34558802296577E-01
 cg2d: Sum(rhs),rhsMax =  -4.16650164000910E-04  1.34557498170542E-01
 cg2d: Sum(rhs),rhsMax =  -4.16597386000448E-04  1.34556207473279E-01
 cg2d: Sum(rhs),rhsMax =  -4.16544177044592E-04  1.34554930207477E-01
 cg2d: Sum(rhs),rhsMax =  -4.16490533621047E-04  1.34553666375736E-01
 cg2d: Sum(rhs),rhsMax =  -4.16436452398150E-04  1.34552415980589E-01
 cg2d: Sum(rhs),rhsMax =  -4.16381929934812E-04  1.34551179024528E-01
 cg2d: Sum(rhs),rhsMax =  -4.16326962773133E-04  1.34549955510022E-01
 cg2d: Sum(rhs),rhsMax =  -4.16271547425495E-04  1.34548745439531E-01
 cg2d: Sum(rhs),rhsMax =  -4.16215680464019E-04  1.34547548815496E-01
 cg2d: Sum(rhs),rhsMax =  -4.16159358409996E-04  1.34546365640350E-01
 cg2d: Sum(rhs),rhsMax =  -4.16102577887255E-04  1.34545195916494E-01
 cg2d: Sum(rhs),rhsMax =  -4.16045335366030E-04  1.34544039646295E-01
 cg2d: Sum(rhs),rhsMax =  -4.15987627407963E-04  1.34542896832086E-01
 cg2d: Sum(rhs),rhsMax =  -4.15929450478703E-04  1.34541767476150E-01
 cg2d: Sum(rhs),rhsMax =  -4.15870801231350E-04  1.34540651580736E-01
 cg2d: Sum(rhs),rhsMax =  -4.15811676286145E-04  1.34539549148053E-01
 cg2d: Sum(rhs),rhsMax =  -4.15752072215596E-04  1.34538460180272E-01
 cg2d: Sum(rhs),rhsMax =  -4.15691985808221E-04  1.34537384679537E-01
 cg2d: Sum(rhs),rhsMax =  -4.15631413599572E-04  1.34536322647955E-01
 cg2d: Sum(rhs),rhsMax =  -4.15570352571717E-04  1.34535274087608E-01
 cg2d: Sum(rhs),rhsMax =  -4.15508799597877E-04  1.34534239000543E-01
 cg2d: Sum(rhs),rhsMax =  -4.15446751474907E-04  1.34533217388776E-01
 cg2d: Sum(rhs),rhsMax =  -4.15384205356355E-04  1.34532209254287E-01
 cg2d: Sum(rhs),rhsMax =  -4.15321158358987E-04  1.34531214599025E-01
 cg2d: Sum(rhs),rhsMax =  -4.15257607789021E-04  1.34530233424903E-01
 cg2d: Sum(rhs),rhsMax =  -4.15193550851473E-04  1.34529265733800E-01
 cg2d: Sum(rhs),rhsMax =  -4.15128985078851E-04  1.34528311527559E-01
 cg2d: Sum(rhs),rhsMax =  -4.15063908057632E-04  1.34527370807993E-01
 cg2d: Sum(rhs),rhsMax =  -4.14998317432580E-04  1.34526443576876E-01
 cg2d: Sum(rhs),rhsMax =  -4.14932211071551E-04  1.34525529835953E-01
 cg2d: Sum(rhs),rhsMax =  -4.14865586758912E-04  1.34524629586935E-01
 cg2d: Sum(rhs),rhsMax =  -4.14798442564911E-04  1.34523742831498E-01
 cg2d: Sum(rhs),rhsMax =  -4.14730776608037E-04  1.34522869571286E-01
 cg2d: Sum(rhs),rhsMax =  -4.14662587020513E-04  1.34522009807908E-01
 cg2d: Sum(rhs),rhsMax =  -4.14593872125881E-04  1.34521163542943E-01
 cg2d: Sum(rhs),rhsMax =  -4.14524630345084E-04  1.34520330777931E-01
 cg2d: Sum(rhs),rhsMax =  -4.14454860121310E-04  1.34519511514382E-01
 cg2d: Sum(rhs),rhsMax =  -4.14384560123149E-04  1.34518705753770E-01
 cg2d: Sum(rhs),rhsMax =  -4.14313728919078E-04  1.34517913497538E-01
 cg2d: Sum(rhs),rhsMax =  -4.14242365186757E-04  1.34517134747093E-01
 cg2d: Sum(rhs),rhsMax =  -4.14170467673353E-04  1.34516369503810E-01
 cg2d: Sum(rhs),rhsMax =  -4.14098035293377E-04  1.34515617769028E-01
 cg2d: Sum(rhs),rhsMax =  -4.14025066935110E-04  1.34514879544057E-01
 cg2d: Sum(rhs),rhsMax =  -4.13951561426908E-04  1.34514154830168E-01
 cg2d: Sum(rhs),rhsMax =  -4.13877517907228E-04  1.34513443628602E-01
 cg2d: Sum(rhs),rhsMax =  -4.13802935244741E-04  1.34512745940565E-01
 cg2d: Sum(rhs),rhsMax =  -4.13727812573038E-04  1.34512061767231E-01
 cg2d: Sum(rhs),rhsMax =  -4.13652148987249E-04  1.34511391109737E-01
 cg2d: Sum(rhs),rhsMax =  -4.13575943641577E-04  1.34510733969190E-01
 cg2d: Sum(rhs),rhsMax =  -4.13499195576498E-04  1.34510090346663E-01
 cg2d: Sum(rhs),rhsMax =  -4.13421903992356E-04  1.34509460243193E-01
 cg2d: Sum(rhs),rhsMax =  -4.13344068215880E-04  1.34508843659785E-01
 cg2d: Sum(rhs),rhsMax =  -4.13265687208996E-04  1.34508240597412E-01
 cg2d: Sum(rhs),rhsMax =  -4.13186760322196E-04  1.34507651057009E-01
 cg2d: Sum(rhs),rhsMax =  -4.13107286808947E-04  1.34507075039482E-01
 cg2d: Sum(rhs),rhsMax =  -4.13027265719612E-04  1.34506512545701E-01
 cg2d: Sum(rhs),rhsMax =  -4.12946696467192E-04  1.34505963576503E-01
 cg2d: Sum(rhs),rhsMax =  -4.12865578177557E-04  1.34505428132693E-01
 cg2d: Sum(rhs),rhsMax =  -4.12783910190470E-04  1.34504906215039E-01
(PID.TID 0000.0001)      cg2d_init_res =   8.97525372049783E-04
(PID.TID 0000.0001)      cg2d_iters(min,last) =      -1      73
(PID.TID 0000.0001)      cg2d_last_res =   8.91745237921723E-08
(PID.TID 0000.0001) // =======================================================
(PID.TID 0000.0001) // Begin MONITOR dynamic field statistics
(PID.TID 0000.0001) // =======================================================
(PID.TID 0000.0001) %MON time_tsnumber                =                 11952
(PID.TID 0000.0001) %MON time_secondsf                =   1.4342400000000E+07
(PID.TID 0000.0001) %MON dynstat_eta_max              =   4.4775569854845E-02
(PID.TID 0000.0001) %MON dynstat_eta_min              =  -2.0507760844687E-02
(PID.TID 0000.0001) %MON dynstat_eta_mean             =   2.7755096265755E-07
(PID.TID 0000.0001) %MON dynstat_eta_sd               =   1.4099941804339E-02
(PID.TID 0000.0001) %MON dynstat_eta_del2             =   1.7666407420713E-05
(PID.TID 0000.0001) %MON dynstat_uvel_max             =   3.0023991639283E-02
(PID.TID 0000.0001) %MON dynstat_uvel_min             =  -1.3484009354655E-02
(PID.TID 0000.0001) %MON dynstat_uvel_mean            =  -1.7443837977911E-08
(PID.TID 0000.0001) %MON dynstat_uvel_sd              =   6.0814608236281E-03
(PID.TID 0000.0001) %MON dynstat_uvel_del2            =   7.8261695206522E-06
(PID.TID 0000.0001) %MON dynstat_vvel_max             =   8.1156764682886E-02
(PID.TID 0000.0001) %MON dynstat_vvel_min             =  -3.3090940045726E-02
(PID.TID 0000.0001) %MON dynstat_vvel_mean            =  -1.5181622217819E-08
(PID.TID 0000.0001) %MON dynstat_vvel_sd              =   1.3988412675332E-02
(PID.TID 0000.0001) %MON dynstat_vvel_del2            =   7.2082762187721E-05
(PID.TID 0000.0001) %MON dynstat_wvel_max             =   1.3577244685075E-08
(PID.TID 0000.0001) %MON dynstat_wvel_min             =  -6.2888709678373E-09
(PID.TID 0000.0001) %MON dynstat_wvel_mean            =   2.3717348085484E-22
(PID.TID 0000.0001) %MON dynstat_wvel_sd              =   5.2951548954037E-09
(PID.TID 0000.0001) %MON dynstat_wvel_del2            =   1.8343547926849E-12
(PID.TID 0000.0001) %MON dynstat_theta_max            =   2.0000000000000E+01
(PID.TID 0000.0001) %MON dynstat_theta_min            =   2.0000000000000E+01
(PID.TID 0000.0001) %MON dynstat_theta_mean           =   2.0000000000000E+01
(PID.TID 0000.0001) %MON dynstat_theta_sd             =   0.0000000000000E+00
(PID.TID 0000.0001) %MON dynstat_theta_del2           =   0.0000000000000E+00
(PID.TID 0000.0001) %MON dynstat_salt_max             =   3.0000000000000E+01
(PID.TID 0000.0001) %MON dynstat_salt_min             =   3.0000000000000E+01
(PID.TID 0000.0001) %MON dynstat_salt_mean            =   3.0000000000000E+01
(PID.TID 0000.0001) %MON dynstat_salt_sd              =   0.0000000000000E+00
(PID.TID 0000.0001) %MON dynstat_salt_del2            =   0.0000000000000E+00
(PID.TID 0000.0001) %MON trAdv_CFL_u_max              =   1.8014979016484E-03
(PID.TID 0000.0001) %MON trAdv_CFL_v_max              =   4.8694701331244E-03
(PID.TID 0000.0001) %MON trAdv_CFL_w_max              =   3.2577277204546E-09
(PID.TID 0000.0001) %MON advcfl_uvel_max              =   1.8014394983570E-03
(PID.TID 0000.0001) %MON advcfl_vvel_max              =   4.8694058809732E-03
(PID.TID 0000.0001) %MON advcfl_wvel_max              =   6.5170774488361E-09
(PID.TID 0000.0001) %MON advcfl_W_hf_max              =   0.0000000000000E+00
(PID.TID 0000.0001) %MON pe_b_mean                    =   1.9503100014249E-07
(PID.TID 0000.0001) %MON ke_max                       =   3.2897735196848E-03
(PID.TID 0000.0001) %MON ke_mean                      =   1.1439109533824E-04
(PID.TID 0000.0001) %MON ke_vol                       =   7.2000000000000E+15
(PID.TID 0000.0001) %MON vort_r_min                   =  -1.4980006965179E-06
(PID.TID 0000.0001) %MON vort_r_max                   =   2.2272930343877E-06
(PID.TID 0000.0001) %MON vort_a_mean                  =   1.0600000000000E-04
(PID.TID 0000.0001) %MON vort_a_sd                    =   3.5355061925904E-06
(PID.TID 0000.0001) %MON vort_p_mean                  =   1.1130000000000E-04
(PID.TID 0000.0001) %MON vort_p_sd                    =   4.1150832596871E-05
(PID.TID 0000.0001) %MON surfExpan_theta_mean         =   4.7660048747073E-21
(PID.TID 0000.0001) %MON surfExpan_salt_mean          =   7.1534284668612E-21
(PID.TID 0000.0001) // =======================================================
(PID.TID 0000.0001) // End MONITOR dynamic field statistics
(PID.TID 0000.0001) // =======================================================
 cg2d: Sum(rhs),rhsMax =  -4.12701691753451E-04  1.34504397824279E-01
 cg2d: Sum(rhs),rhsMax =  -4.12618921942610E-04  1.34503902961115E-01
 cg2d: Sum(rhs),rhsMax =  -4.12535600113598E-04  1.34503421626217E-01
 cg2d: Sum(rhs),rhsMax =  -4.12451725362433E-04  1.34502953820220E-01
 cg2d: Sum(rhs),rhsMax =  -4.12367297046528E-04  1.34502499543727E-01
 cg2d: Sum(rhs),rhsMax =  -4.12282314406710E-04  1.34502058797307E-01
 cg2d: Sum(rhs),rhsMax =  -4.12196776507005E-04  1.34501631581495E-01
 cg2d: Sum(rhs),rhsMax =  -4.12110682555362E-04  1.34501217896793E-01
 cg2d: Sum(rhs),rhsMax =  -4.12024031803806E-04  1.34500817743668E-01
 cg2d: Sum(rhs),rhsMax =  -4.11936823354146E-04  1.34500431122556E-01
 cg2d: Sum(rhs),rhsMax =  -4.11849056397086E-04  1.34500058033859E-01
 cg2d: Sum(rhs),rhsMax =  -4.11760730071585E-04  1.34499698477943E-01
 cg2d: Sum(rhs),rhsMax =  -4.11671843505305E-04  1.34499352455143E-01
 cg2d: Sum(rhs),rhsMax =  -4.11582395781342E-04  1.34499019965760E-01
 cg2d: Sum(rhs),rhsMax =  -4.11492386055970E-04  1.34498701010060E-01
 cg2d: Sum(rhs),rhsMax =  -4.11401813266121E-04  1.34498395588279E-01
 cg2d: Sum(rhs),rhsMax =  -4.11310676665186E-04  1.34498103700615E-01
 cg2d: Sum(rhs),rhsMax =  -4.11218975186385E-04  1.34497825347237E-01
 cg2d: Sum(rhs),rhsMax =  -4.11126707929724E-04  1.34497560528276E-01
 cg2d: Sum(rhs),rhsMax =  -4.11033873798254E-04  1.34497309243833E-01
 cg2d: Sum(rhs),rhsMax =  -4.10940471865700E-04  1.34497071493974E-01
 cg2d: Sum(rhs),rhsMax =  -4.10846501082892E-04  1.34496847278734E-01
 cg2d: Sum(rhs),rhsMax =  -4.10751960378206E-04  1.34496636598110E-01
 cg2d: Sum(rhs),rhsMax =  -4.10656848748934E-04  1.34496439452068E-01
 cg2d: Sum(rhs),rhsMax =  -4.10561165099121E-04  1.34496255840542E-01
 cg2d: Sum(rhs),rhsMax =  -4.10464908310844E-04  1.34496085763431E-01
 cg2d: Sum(rhs),rhsMax =  -4.10368077246722E-04  1.34495929220600E-01
 cg2d: Sum(rhs),rhsMax =  -4.10270670772826E-04  1.34495786211882E-01
 cg2d: Sum(rhs),rhsMax =  -4.10172687760882E-04  1.34495656737074E-01
 cg2d: Sum(rhs),rhsMax =  -4.10074127082066E-04  1.34495540795944E-01
 cg2d: Sum(rhs),rhsMax =  -4.09974987447367E-04  1.34495438388223E-01
 cg2d: Sum(rhs),rhsMax =  -4.09875267683299E-04  1.34495349513609E-01
 cg2d: Sum(rhs),rhsMax =  -4.09774966560370E-04  1.34495274171768E-01
 cg2d: Sum(rhs),rhsMax =  -4.09674082845370E-04  1.34495212362331E-01
 cg2d: Sum(rhs),rhsMax =  -4.09572615263689E-04  1.34495164084898E-01
 cg2d: Sum(rhs),rhsMax =  -4.09470562479714E-04  1.34495129339032E-01
 cg2d: Sum(rhs),rhsMax =  -4.09367923299099E-04  1.34495108124266E-01
 cg2d: Sum(rhs),rhsMax =  -4.09264696319067E-04  1.34495100440097E-01
 cg2d: Sum(rhs),rhsMax =  -4.09160880272686E-04  1.34495106285992E-01
 cg2d: Sum(rhs),rhsMax =  -4.09056473693812E-04  1.34495125661382E-01
 cg2d: Sum(rhs),rhsMax =  -4.08951475303915E-04  1.34495158565663E-01
 cg2d: Sum(rhs),rhsMax =  -4.08845883696212E-04  1.34495204998202E-01
 cg2d: Sum(rhs),rhsMax =  -4.08739697426826E-04  1.34495264958331E-01
 cg2d: Sum(rhs),rhsMax =  -4.08632915158074E-04  1.34495338445345E-01
 cg2d: Sum(rhs),rhsMax =  -4.08525535415369E-04  1.34495425458513E-01
 cg2d: Sum(rhs),rhsMax =  -4.08417556662102E-04  1.34495525997064E-01
 cg2d: Sum(rhs),rhsMax =  -4.08308977602633E-04  1.34495640060196E-01
 cg2d: Sum(rhs),rhsMax =  -4.08199796669845E-04  1.34495767647074E-01
 cg2d: Sum(rhs),rhsMax =  -4.08090012335993E-04  1.34495908756832E-01
 cg2d: Sum(rhs),rhsMax =  -4.07979623147955E-04  1.34496063388565E-01
 cg2d: Sum(rhs),rhsMax =  -4.07868627622399E-04  1.34496231541340E-01
 cg2d: Sum(rhs),rhsMax =  -4.07757024178328E-04  1.34496413214188E-01
 cg2d: Sum(rhs),rhsMax =  -4.07644811335464E-04  1.34496608406108E-01
 cg2d: Sum(rhs),rhsMax =  -4.07531987426824E-04  1.34496817116066E-01
 cg2d: Sum(rhs),rhsMax =  -4.07418551033902E-04  1.34497039342991E-01
 cg2d: Sum(rhs),rhsMax =  -4.07304500355337E-04  1.34497275085784E-01
 cg2d: Sum(rhs),rhsMax =  -4.07189834022801E-04  1.34497524343311E-01
 cg2d: Sum(rhs),rhsMax =  -4.07074550375516E-04  1.34497787114402E-01
 cg2d: Sum(rhs),rhsMax =  -4.06958647826900E-04  1.34498063397858E-01
 cg2d: Sum(rhs),rhsMax =  -4.06842124728759E-04  1.34498353192444E-01
 cg2d: Sum(rhs),rhsMax =  -4.06724979483717E-04  1.34498656496891E-01
 cg2d: Sum(rhs),rhsMax =  -4.06607210570635E-04  1.34498973309902E-01
 cg2d: Sum(rhs),rhsMax =  -4.06488816082819E-04  1.34499303630139E-01
 cg2d: Sum(rhs),rhsMax =  -4.06369794618942E-04  1.34499647456239E-01
 cg2d: Sum(rhs),rhsMax =  -4.06250144487487E-04  1.34500004786798E-01
 cg2d: Sum(rhs),rhsMax =  -4.06129863912371E-04  1.34500375620386E-01
 cg2d: Sum(rhs),rhsMax =  -4.06008951434869E-04  1.34500759955533E-01
 cg2d: Sum(rhs),rhsMax =  -4.05887405247629E-04  1.34501157790743E-01
 cg2d: Sum(rhs),rhsMax =  -4.05765223688418E-04  1.34501569124481E-01
 cg2d: Sum(rhs),rhsMax =  -4.05642405095203E-04  1.34501993955181E-01
 cg2d: Sum(rhs),rhsMax =  -4.05518947871764E-04  1.34502432281245E-01
 cg2d: Sum(rhs),rhsMax =  -4.05431212006701E-04  1.34502883913475E-01
(PID.TID 0000.0001)      cg2d_init_res =   8.93240692747804E-04
(PID.TID 0000.0001)      cg2d_iters(min,last) =      -1      74
(PID.TID 0000.0001)      cg2d_last_res =   8.41497636351423E-08
(PID.TID 0000.0001) // =======================================================
(PID.TID 0000.0001) // Begin MONITOR dynamic field statistics
(PID.TID 0000.0001) // =======================================================
(PID.TID 0000.0001) %MON time_tsnumber                =                 12024
(PID.TID 0000.0001) %MON time_secondsf                =   1.4428800000000E+07
(PID.TID 0000.0001) %MON dynstat_eta_max              =   4.4309322895672E-02
(PID.TID 0000.0001) %MON dynstat_eta_min              =  -2.0937819865394E-02
(PID.TID 0000.0001) %MON dynstat_eta_mean             =   2.7259993633832E-07
(PID.TID 0000.0001) %MON dynstat_eta_sd               =   1.4304053312408E-02
(PID.TID 0000.0001) %MON dynstat_eta_del2             =   1.7621194053131E-05
(PID.TID 0000.0001) %MON dynstat_uvel_max             =   2.9961137597181E-02
(PID.TID 0000.0001) %MON dynstat_uvel_min             =  -1.3510754205699E-02
(PID.TID 0000.0001) %MON dynstat_uvel_mean            =  -4.4763653643905E-08
(PID.TID 0000.0001) %MON dynstat_uvel_sd              =   6.1837871990406E-03
(PID.TID 0000.0001) %MON dynstat_uvel_del2            =   7.8781826765702E-06
(PID.TID 0000.0001) %MON dynstat_vvel_max             =   8.1100649007807E-02
(PID.TID 0000.0001) %MON dynstat_vvel_min             =  -3.2865983926282E-02
(PID.TID 0000.0001) %MON dynstat_vvel_mean            =  -1.5276460032034E-08
(PID.TID 0000.0001) %MON dynstat_vvel_sd              =   1.3967490906100E-02
(PID.TID 0000.0001) %MON dynstat_vvel_del2            =   7.1923407250134E-05
(PID.TID 0000.0001) %MON dynstat_wvel_max             =   1.3760818986702E-08
(PID.TID 0000.0001) %MON dynstat_wvel_min             =  -6.5224440713064E-09
(PID.TID 0000.0001) %MON dynstat_wvel_mean            =   1.8403246334249E-22
(PID.TID 0000.0001) %MON dynstat_wvel_sd              =   5.2843472059651E-09
(PID.TID 0000.0001) %MON dynstat_wvel_del2            =   1.8115884214900E-12
(PID.TID 0000.0001) %MON dynstat_theta_max            =   2.0000000000000E+01
(PID.TID 0000.0001) %MON dynstat_theta_min            =   2.0000000000000E+01
(PID.TID 0000.0001) %MON dynstat_theta_mean           =   2.0000000000000E+01
(PID.TID 0000.0001) %MON dynstat_theta_sd             =   0.0000000000000E+00
(PID.TID 0000.0001) %MON dynstat_theta_del2           =   0.0000000000000E+00
(PID.TID 0000.0001) %MON dynstat_salt_max             =   3.0000000000000E+01
(PID.TID 0000.0001) %MON dynstat_salt_min             =   3.0000000000000E+01
(PID.TID 0000.0001) %MON dynstat_salt_mean            =   3.0000000000000E+01
(PID.TID 0000.0001) %MON dynstat_salt_sd              =   0.0000000000000E+00
(PID.TID 0000.0001) %MON dynstat_salt_del2            =   0.0000000000000E+00
(PID.TID 0000.0001) %MON trAdv_CFL_u_max              =   1.7977147133907E-03
(PID.TID 0000.0001) %MON trAdv_CFL_v_max              =   4.8660686201764E-03
(PID.TID 0000.0001) %MON trAdv_CFL_w_max              =   3.3018429588061E-09
(PID.TID 0000.0001) %MON advcfl_uvel_max              =   1.7976682558308E-03
(PID.TID 0000.0001) %MON advcfl_vvel_max              =   4.8660389404684E-03
(PID.TID 0000.0001) %MON advcfl_wvel_max              =   6.6051931136171E-09
(PID.TID 0000.0001) %MON advcfl_W_hf_max              =   0.0000000000000E+00
(PID.TID 0000.0001) %MON pe_b_mean                    =   2.0071842835499E-07
(PID.TID 0000.0001) %MON ke_max                       =   3.2844272356607E-03
(PID.TID 0000.0001) %MON ke_mean                      =   1.1472059628248E-04
(PID.TID 0000.0001) %MON ke_vol                       =   7.2000000000000E+15
(PID.TID 0000.0001) %MON vort_r_min                   =  -1.4960544973371E-06
(PID.TID 0000.0001) %MON vort_r_max                   =   2.2286224067644E-06
(PID.TID 0000.0001) %MON vort_a_mean                  =   1.0600000000000E-04
(PID.TID 0000.0001) %MON vort_a_sd                    =   3.5354535266310E-06
(PID.TID 0000.0001) %MON vort_p_mean                  =   1.1130000000000E-04
(PID.TID 0000.0001) %MON vort_p_sd                    =   4.1151012166768E-05
(PID.TID 0000.0001) %MON surfExpan_theta_mean         =   3.7125019108291E-21
(PID.TID 0000.0001) %MON surfExpan_salt_mean          =   5.5725448946633E-21
(PID.TID 0000.0001) // =======================================================
(PID.TID 0000.0001) // End MONITOR dynamic field statistics
(PID.TID 0000.0001) // =======================================================
 cg2d: Sum(rhs),rhsMax =  -4.05342971665072E-04  1.34503349214962E-01
 cg2d: Sum(rhs),rhsMax =  -4.05254249625074E-04  1.34503828017660E-01
 cg2d: Sum(rhs),rhsMax =  -4.05165035381664E-04  1.34504320308323E-01
 cg2d: Sum(rhs),rhsMax =  -4.05075324930694E-04  1.34504826084240E-01
 cg2d: Sum(rhs),rhsMax =  -4.04985116839957E-04  1.34505345344023E-01
 cg2d: Sum(rhs),rhsMax =  -4.04894410933589E-04  1.34505878086583E-01
 cg2d: Sum(rhs),rhsMax =  -4.04803207289178E-04  1.34506424310521E-01
 cg2d: Sum(rhs),rhsMax =  -4.04711505578226E-04  1.34506984014076E-01
 cg2d: Sum(rhs),rhsMax =  -4.04619304707760E-04  1.34507557195269E-01
 cg2d: Sum(rhs),rhsMax =  -4.04526603660120E-04  1.34508143852054E-01
 cg2d: Sum(rhs),rhsMax =  -4.04433401082058E-04  1.34508743982389E-01
 cg2d: Sum(rhs),rhsMax =  -4.04339696008259E-04  1.34509357584226E-01
 cg2d: Sum(rhs),rhsMax =  -4.04245487357356E-04  1.34509984655510E-01
 cg2d: Sum(rhs),rhsMax =  -4.04150774286327E-04  1.34510625194158E-01
 cg2d: Sum(rhs),rhsMax =  -4.04055555934578E-04  1.34511279198064E-01
 cg2d: Sum(rhs),rhsMax =  -4.03959831451675E-04  1.34511946665082E-01
 cg2d: Sum(rhs),rhsMax =  -4.03863599779262E-04  1.34512627593026E-01
 cg2d: Sum(rhs),rhsMax =  -4.03766860088119E-04  1.34513321979668E-01
 cg2d: Sum(rhs),rhsMax =  -4.03669611457074E-04  1.34514029822740E-01
 cg2d: Sum(rhs),rhsMax =  -4.03571852856641E-04  1.34514751119938E-01
 cg2d: Sum(rhs),rhsMax =  -4.03473583453517E-04  1.34515485868931E-01
 cg2d: Sum(rhs),rhsMax =  -4.03374802363951E-04  1.34516234067358E-01
 cg2d: Sum(rhs),rhsMax =  -4.03275508697134E-04  1.34516995712827E-01
 cg2d: Sum(rhs),rhsMax =  -4.03175701537448E-04  1.34517770802919E-01
 cg2d: Sum(rhs),rhsMax =  -4.03075380065183E-04  1.34518559335178E-01
 cg2d: Sum(rhs),rhsMax =  -4.02974543289824E-04  1.34519361307120E-01
 cg2d: Sum(rhs),rhsMax =  -4.02873190525211E-04  1.34520176716221E-01
 cg2d: Sum(rhs),rhsMax =  -4.02771320854850E-04  1.34521005559928E-01
 cg2d: Sum(rhs),rhsMax =  -4.02668933364333E-04  1.34521847835652E-01
 cg2d: Sum(rhs),rhsMax =  -4.02566027209343E-04  1.34522703540768E-01
 cg2d: Sum(rhs),rhsMax =  -4.02462601602623E-04  1.34523572672623E-01
 cg2d: Sum(rhs),rhsMax =  -4.02358655719621E-04  1.34524455228530E-01
 cg2d: Sum(rhs),rhsMax =  -4.02254188807146E-04  1.34525351205769E-01
 cg2d: Sum(rhs),rhsMax =  -4.02149200001884E-04  1.34526260601586E-01
 cg2d: Sum(rhs),rhsMax =  -4.02043688537336E-04  1.34527183413198E-01
 cg2d: Sum(rhs),rhsMax =  -4.01937653580379E-04  1.34528119637787E-01
 cg2d: Sum(rhs),rhsMax =  -4.01831094436246E-04  1.34529069272503E-01
 cg2d: Sum(rhs),rhsMax =  -4.01724010243553E-04  1.34530032314464E-01
 cg2d: Sum(rhs),rhsMax =  -4.01616400311064E-04  1.34531008760754E-01
 cg2d: Sum(rhs),rhsMax =  -4.01508263824379E-04  1.34531998608422E-01
 cg2d: Sum(rhs),rhsMax =  -4.01399600071754E-04  1.34533001854490E-01
 cg2d: Sum(rhs),rhsMax =  -4.01290408363009E-04  1.34534018495942E-01
 cg2d: Sum(rhs),rhsMax =  -4.01180687963273E-04  1.34535048529732E-01
 cg2d: Sum(rhs),rhsMax =  -4.01070438087406E-04  1.34536091952780E-01
 cg2d: Sum(rhs),rhsMax =  -4.00959658197463E-04  1.34537148761976E-01
 cg2d: Sum(rhs),rhsMax =  -4.00848347477509E-04  1.34538218954173E-01
 cg2d: Sum(rhs),rhsMax =  -4.00736505283215E-04  1.34539302526195E-01
 cg2d: Sum(rhs),rhsMax =  -4.00624130890190E-04  1.34540399474833E-01
 cg2d: Sum(rhs),rhsMax =  -4.00511223796862E-04  1.34541509796845E-01
 cg2d: Sum(rhs),rhsMax =  -4.00397783133694E-04  1.34542633488956E-01
 cg2d: Sum(rhs),rhsMax =  -4.00283808419435E-04  1.34543770547858E-01
 cg2d: Sum(rhs),rhsMax =  -4.00169298997759E-04  1.34544920970212E-01
 cg2d: Sum(rhs),rhsMax =  -4.00054254201308E-04  1.34546084752644E-01
 cg2d: Sum(rhs),rhsMax =  -3.99938673421190E-04  1.34547261891751E-01
 cg2d: Sum(rhs),rhsMax =  -3.99822556115373E-04  1.34548452384095E-01
 cg2d: Sum(rhs),rhsMax =  -3.99705901662231E-04  1.34549656226206E-01
 cg2d: Sum(rhs),rhsMax =  -3.99588709539270E-04  1.34550873414581E-01
 cg2d: Sum(rhs),rhsMax =  -3.99470979101346E-04  1.34552103945686E-01
 cg2d: Sum(rhs),rhsMax =  -3.99352709862520E-04  1.34553347815954E-01
 cg2d: Sum(rhs),rhsMax =  -3.99233901259930E-04  1.34554605021784E-01
 cg2d: Sum(rhs),rhsMax =  -3.99114552759355E-04  1.34555875559544E-01
 cg2d: Sum(rhs),rhsMax =  -3.98994663705209E-04  1.34557159425572E-01
 cg2d: Sum(rhs),rhsMax =  -3.98874233830402E-04  1.34558456616169E-01
 cg2d: Sum(rhs),rhsMax =  -3.98753262498972E-04  1.34559767127606E-01
 cg2d: Sum(rhs),rhsMax =  -3.98631749199092E-04  1.34561090956121E-01
 cg2d: Sum(rhs),rhsMax =  -3.98509693473011E-04  1.34562428097920E-01
 cg2d: Sum(rhs),rhsMax =  -3.98387094861765E-04  1.34563778549178E-01
 cg2d: Sum(rhs),rhsMax =  -3.98263952898774E-04  1.34565142306035E-01
 cg2d: Sum(rhs),rhsMax =  -3.98140267156809E-04  1.34566519364601E-01
 cg2d: Sum(rhs),rhsMax =  -3.98016037205006E-04  1.34567909720952E-01
 cg2d: Sum(rhs),rhsMax =  -3.97891262582248E-04  1.34569313371133E-01
 cg2d: Sum(rhs),rhsMax =  -3.97765942871889E-04  1.34570730311156E-01
(PID.TID 0000.0001)      cg2d_init_res =   8.89981398235909E-04
(PID.TID 0000.0001)      cg2d_iters(min,last) =      -1      74
(PID.TID 0000.0001)      cg2d_last_res =   9.51361465048522E-08
(PID.TID 0000.0001) // =======================================================
(PID.TID 0000.0001) // Begin MONITOR dynamic field statistics
(PID.TID 0000.0001) // =======================================================
(PID.TID 0000.0001) %MON time_tsnumber                =                 12096
(PID.TID 0000.0001) %MON time_secondsf                =   1.4515200000000E+07
(PID.TID 0000.0001) %MON dynstat_eta_max              =   4.3898210248060E-02
(PID.TID 0000.0001) %MON dynstat_eta_min              =  -2.1361609338578E-02
(PID.TID 0000.0001) %MON dynstat_eta_mean             =   2.6755642178969E-07
(PID.TID 0000.0001) %MON dynstat_eta_sd               =   1.4537829644248E-02
(PID.TID 0000.0001) %MON dynstat_eta_del2             =   1.7578025701639E-05
(PID.TID 0000.0001) %MON dynstat_uvel_max             =   2.9912813732435E-02
(PID.TID 0000.0001) %MON dynstat_uvel_min             =  -1.3552933790500E-02
(PID.TID 0000.0001) %MON dynstat_uvel_mean            =  -7.1191152355921E-08
(PID.TID 0000.0001) %MON dynstat_uvel_sd              =   6.2897686265254E-03
(PID.TID 0000.0001) %MON dynstat_uvel_del2            =   7.9352650280810E-06
(PID.TID 0000.0001) %MON dynstat_vvel_max             =   8.1086201386331E-02
(PID.TID 0000.0001) %MON dynstat_vvel_min             =  -3.2621432348105E-02
(PID.TID 0000.0001) %MON dynstat_vvel_mean            =  -1.5225612752959E-08
(PID.TID 0000.0001) %MON dynstat_vvel_sd              =   1.3954600530299E-02
(PID.TID 0000.0001) %MON dynstat_vvel_del2            =   7.1787624163942E-05
(PID.TID 0000.0001) %MON dynstat_wvel_max             =   1.3903809791227E-08
(PID.TID 0000.0001) %MON dynstat_wvel_min             =  -6.7712595450575E-09
(PID.TID 0000.0001) %MON dynstat_wvel_mean            =   2.4341711145502E-21
(PID.TID 0000.0001) %MON dynstat_wvel_sd              =   5.2740246191869E-09
(PID.TID 0000.0001) %MON dynstat_wvel_del2            =   1.7862259482487E-12
(PID.TID 0000.0001) %MON dynstat_theta_max            =   2.0000000000000E+01
(PID.TID 0000.0001) %MON dynstat_theta_min            =   2.0000000000000E+01
(PID.TID 0000.0001) %MON dynstat_theta_mean           =   2.0000000000000E+01
(PID.TID 0000.0001) %MON dynstat_theta_sd             =   0.0000000000000E+00
(PID.TID 0000.0001) %MON dynstat_theta_del2           =   0.0000000000000E+00
(PID.TID 0000.0001) %MON dynstat_salt_max             =   3.0000000000000E+01
(PID.TID 0000.0001) %MON dynstat_salt_min             =   3.0000000000000E+01
(PID.TID 0000.0001) %MON dynstat_salt_mean            =   3.0000000000000E+01
(PID.TID 0000.0001) %MON dynstat_salt_sd              =   0.0000000000000E+00
(PID.TID 0000.0001) %MON dynstat_salt_del2            =   0.0000000000000E+00
(PID.TID 0000.0001) %MON trAdv_CFL_u_max              =   1.7948030385078E-03
(PID.TID 0000.0001) %MON trAdv_CFL_v_max              =   4.8651669664483E-03
(PID.TID 0000.0001) %MON trAdv_CFL_w_max              =   3.3367001701437E-09
(PID.TID 0000.0001) %MON advcfl_uvel_max              =   1.7947688239461E-03
(PID.TID 0000.0001) %MON advcfl_vvel_max              =   4.8651720831799E-03
(PID.TID 0000.0001) %MON advcfl_wvel_max              =   6.6738286997890E-09
(PID.TID 0000.0001) %MON advcfl_W_hf_max              =   0.0000000000000E+00
(PID.TID 0000.0001) %MON pe_b_mean                    =   2.0733286951086E-07
(PID.TID 0000.0001) %MON ke_max                       =   3.2824832654789E-03
(PID.TID 0000.0001) %MON ke_mean                      =   1.1519359879253E-04
(PID.TID 0000.0001) %MON ke_vol                       =   7.2000000000000E+15
(PID.TID 0000.0001) %MON vort_r_min                   =  -1.4940981117632E-06
(PID.TID 0000.0001) %MON vort_r_max                   =   2.2311679286380E-06
(PID.TID 0000.0001) %MON vort_a_mean                  =   1.0600000000000E-04
(PID.TID 0000.0001) %MON vort_a_sd                    =   3.5354132491854E-06
(PID.TID 0000.0001) %MON vort_p_mean                  =   1.1130000000000E-04
(PID.TID 0000.0001) %MON vort_p_sd                    =   4.1151191767296E-05
(PID.TID 0000.0001) %MON surfExpan_theta_mean         =   4.8682124997868E-20
(PID.TID 0000.0001) %MON surfExpan_salt_mean          =   7.3024134887116E-20
(PID.TID 0000.0001) // =======================================================
(PID.TID 0000.0001) // End MONITOR dynamic field statistics
(PID.TID 0000.0001) // =======================================================
 cg2d: Sum(rhs),rhsMax =  -3.97640077632835E-04  1.34572160537001E-01
 cg2d: Sum(rhs),rhsMax =  -3.97513666575949E-04  1.34573604044616E-01
 cg2d: Sum(rhs),rhsMax =  -3.97386709077055E-04  1.34575060829916E-01
 cg2d: Sum(rhs),rhsMax =  -3.97259205085360E-04  1.34576530888785E-01
 cg2d: Sum(rhs),rhsMax =  -3.97131154025148E-04  1.34578014217075E-01
 cg2d: Sum(rhs),rhsMax =  -3.97002555667022E-04  1.34579510810602E-01
 cg2d: Sum(rhs),rhsMax =  -3.96873409501299E-04  1.34581020665157E-01
 cg2d: Sum(rhs),rhsMax =  -3.96743715270174E-04  1.34582543776491E-01
 cg2d: Sum(rhs),rhsMax =  -3.96613472657806E-04  1.34584080140329E-01
 cg2d: Sum(rhs),rhsMax =  -3.96482681463504E-04  1.34585629752360E-01
 cg2d: Sum(rhs),rhsMax =  -3.96351341235398E-04  1.34587192608243E-01
 cg2d: Sum(rhs),rhsMax =  -3.96219451626065E-04  1.34588768703604E-01
 cg2d: Sum(rhs),rhsMax =  -3.96087012487674E-04  1.34590358034037E-01
 cg2d: Sum(rhs),rhsMax =  -3.95954023494841E-04  1.34591960595106E-01
 cg2d: Sum(rhs),rhsMax =  -3.95820484410369E-04  1.34593576382339E-01
 cg2d: Sum(rhs),rhsMax =  -3.95686394975851E-04  1.34595205391236E-01
 cg2d: Sum(rhs),rhsMax =  -3.95551754842145E-04  1.34596847617261E-01
 cg2d: Sum(rhs),rhsMax =  -3.95416563867082E-04  1.34598503055849E-01
 cg2d: Sum(rhs),rhsMax =  -3.95280821847570E-04  1.34600171702405E-01
 cg2d: Sum(rhs),rhsMax =  -3.95144528482864E-04  1.34601853552295E-01
 cg2d: Sum(rhs),rhsMax =  -3.95007683630372E-04  1.34603548600860E-01
 cg2d: Sum(rhs),rhsMax =  -3.94870286990672E-04  1.34605256843404E-01
 cg2d: Sum(rhs),rhsMax =  -3.94732338406686E-04  1.34606978275204E-01
 cg2d: Sum(rhs),rhsMax =  -3.94593837840379E-04  1.34608712891502E-01
 cg2d: Sum(rhs),rhsMax =  -3.94454784970653E-04  1.34610460687508E-01
 cg2d: Sum(rhs),rhsMax =  -3.94315179657433E-04  1.34612221658402E-01
 cg2d: Sum(rhs),rhsMax =  -3.94175021773796E-04  1.34613995799330E-01
 cg2d: Sum(rhs),rhsMax =  -3.94034311071731E-04  1.34615783105408E-01
 cg2d: Sum(rhs),rhsMax =  -3.93893047565779E-04  1.34617583571719E-01
 cg2d: Sum(rhs),rhsMax =  -3.93751230983584E-04  1.34619397193314E-01
 cg2d: Sum(rhs),rhsMax =  -3.93608861345403E-04  1.34621223965214E-01
 cg2d: Sum(rhs),rhsMax =  -3.93465938393034E-04  1.34623063882407E-01
 cg2d: Sum(rhs),rhsMax =  -3.93322462081790E-04  1.34624916939850E-01
 cg2d: Sum(rhs),rhsMax =  -3.93178432428744E-04  1.34626783132466E-01
 cg2d: Sum(rhs),rhsMax =  -3.93072700671237E-04  1.34628662157261E-01
 cg2d: Sum(rhs),rhsMax =  -3.92966587307403E-04  1.34630554567867E-01
 cg2d: Sum(rhs),rhsMax =  -3.92860051965180E-04  1.34632460134522E-01
 cg2d: Sum(rhs),rhsMax =  -3.92753103119205E-04  1.34634378816014E-01
 cg2d: Sum(rhs),rhsMax =  -3.92645736020913E-04  1.34636310606767E-01
 cg2d: Sum(rhs),rhsMax =  -3.92537950551607E-04  1.34638255499734E-01
 cg2d: Sum(rhs),rhsMax =  -3.92429747961082E-04  1.34640213490636E-01
 cg2d: Sum(rhs),rhsMax =  -3.92321129862149E-04  1.34642184574791E-01
 cg2d: Sum(rhs),rhsMax =  -3.92212096866691E-04  1.34644168747178E-01
 cg2d: Sum(rhs),rhsMax =  -3.92102649193531E-04  1.34646166002410E-01
 cg2d: Sum(rhs),rhsMax =  -3.91992786296048E-04  1.34648176334987E-01
 cg2d: Sum(rhs),rhsMax =  -3.91882507855817E-04  1.34650199739379E-01
 cg2d: Sum(rhs),rhsMax =  -3.91771813618975E-04  1.34652236210059E-01
 cg2d: Sum(rhs),rhsMax =  -3.91660703470975E-04  1.34654285741497E-01
 cg2d: Sum(rhs),rhsMax =  -3.91549177335684E-04  1.34656348328148E-01
 cg2d: Sum(rhs),rhsMax =  -3.91437235401806E-04  1.34658423964451E-01
 cg2d: Sum(rhs),rhsMax =  -3.91324877724903E-04  1.34660512644809E-01
 cg2d: Sum(rhs),rhsMax =  -3.91212104191659E-04  1.34662614363591E-01
 cg2d: Sum(rhs),rhsMax =  -3.91098914755257E-04  1.34664729115124E-01
 cg2d: Sum(rhs),rhsMax =  -3.90985309404191E-04  1.34666856893697E-01
 cg2d: Sum(rhs),rhsMax =  -3.90871288081330E-04  1.34668997693566E-01
 cg2d: Sum(rhs),rhsMax =  -3.90756850725689E-04  1.34671151508956E-01
 cg2d: Sum(rhs),rhsMax =  -3.90641997297904E-04  1.34673318334066E-01
 cg2d: Sum(rhs),rhsMax =  -3.90526727854233E-04  1.34675498163064E-01
 cg2d: Sum(rhs),rhsMax =  -3.90411042245169E-04  1.34677690990089E-01
 cg2d: Sum(rhs),rhsMax =  -3.90294940534985E-04  1.34679896809252E-01
 cg2d: Sum(rhs),rhsMax =  -3.90178422699398E-04  1.34682115614629E-01
 cg2d: Sum(rhs),rhsMax =  -3.90061488737584E-04  1.34684347400263E-01
 cg2d: Sum(rhs),rhsMax =  -3.89944138565505E-04  1.34686592160170E-01
 cg2d: Sum(rhs),rhsMax =  -3.89826372144088E-04  1.34688849888329E-01
 cg2d: Sum(rhs),rhsMax =  -3.89708189527502E-04  1.34691120578693E-01
 cg2d: Sum(rhs),rhsMax =  -3.89589590709557E-04  1.34693404225177E-01
 cg2d: Sum(rhs),rhsMax =  -3.89470575493577E-04  1.34695700821672E-01
 cg2d: Sum(rhs),rhsMax =  -3.89351144040525E-04  1.34698010362034E-01
 cg2d: Sum(rhs),rhsMax =  -3.89231296283311E-04  1.34700332840090E-01
 cg2d: Sum(rhs),rhsMax =  -3.89111032256037E-04  1.34702668249634E-01
 cg2d: Sum(rhs),rhsMax =  -3.88990351774982E-04  1.34705016584431E-01
 cg2d: Sum(rhs),rhsMax =  -3.88869254954957E-04  1.34707377838214E-01
(PID.TID 0000.0001)      cg2d_init_res =   8.87607783377861E-04
(PID.TID 0000.0001)      cg2d_iters(min,last) =      -1      75
(PID.TID 0000.0001)      cg2d_last_res =   8.95278945515628E-08
(PID.TID 0000.0001) // =======================================================
(PID.TID 0000.0001) // Begin MONITOR dynamic field statistics
(PID.TID 0000.0001) // =======================================================
(PID.TID 0000.0001) %MON time_tsnumber                =                 12168
(PID.TID 0000.0001) %MON time_secondsf                =   1.4601600000000E+07
(PID.TID 0000.0001) %MON dynstat_eta_max              =   4.3546338848518E-02
(PID.TID 0000.0001) %MON dynstat_eta_min              =  -2.1774405706956E-02
(PID.TID 0000.0001) %MON dynstat_eta_mean             =   2.6184055940335E-07
(PID.TID 0000.0001) %MON dynstat_eta_sd               =   1.4796845732500E-02
(PID.TID 0000.0001) %MON dynstat_eta_del2             =   1.7537283479552E-05
(PID.TID 0000.0001) %MON dynstat_uvel_max             =   2.9879289019668E-02
(PID.TID 0000.0001) %MON dynstat_uvel_min             =  -1.3610116224705E-02
(PID.TID 0000.0001) %MON dynstat_uvel_mean            =  -9.6411303993680E-08
(PID.TID 0000.0001) %MON dynstat_uvel_sd              =   6.3978828155014E-03
(PID.TID 0000.0001) %MON dynstat_uvel_del2            =   7.9961809849357E-06
(PID.TID 0000.0001) %MON dynstat_vvel_max             =   8.1113417941653E-02
(PID.TID 0000.0001) %MON dynstat_vvel_min             =  -3.2359853303728E-02
(PID.TID 0000.0001) %MON dynstat_vvel_mean            =  -1.5033367872243E-08
(PID.TID 0000.0001) %MON dynstat_vvel_sd              =   1.3949814137041E-02
(PID.TID 0000.0001) %MON dynstat_vvel_del2            =   7.1676753167969E-05
(PID.TID 0000.0001) %MON dynstat_wvel_max             =   1.3987045368922E-08
(PID.TID 0000.0001) %MON dynstat_wvel_min             =  -6.9907290278934E-09
(PID.TID 0000.0001) %MON dynstat_wvel_mean            =  -4.3476683862941E-21
(PID.TID 0000.0001) %MON dynstat_wvel_sd              =   5.2633090407225E-09
(PID.TID 0000.0001) %MON dynstat_wvel_del2            =   1.7545767643045E-12
(PID.TID 0000.0001) %MON dynstat_theta_max            =   2.0000000000000E+01
(PID.TID 0000.0001) %MON dynstat_theta_min            =   2.0000000000000E+01
(PID.TID 0000.0001) %MON dynstat_theta_mean           =   2.0000000000000E+01
(PID.TID 0000.0001) %MON dynstat_theta_sd             =   0.0000000000000E+00
(PID.TID 0000.0001) %MON dynstat_theta_del2           =   0.0000000000000E+00
(PID.TID 0000.0001) %MON dynstat_salt_max             =   3.0000000000000E+01
(PID.TID 0000.0001) %MON dynstat_salt_min             =   3.0000000000000E+01
(PID.TID 0000.0001) %MON dynstat_salt_mean            =   3.0000000000000E+01
(PID.TID 0000.0001) %MON dynstat_salt_sd              =   0.0000000000000E+00
(PID.TID 0000.0001) %MON dynstat_salt_del2            =   0.0000000000000E+00
(PID.TID 0000.0001) %MON trAdv_CFL_u_max              =   1.7927791600356E-03
(PID.TID 0000.0001) %MON trAdv_CFL_v_max              =   4.8667653864609E-03
(PID.TID 0000.0001) %MON trAdv_CFL_w_max              =   3.3567166686582E-09
(PID.TID 0000.0001) %MON advcfl_uvel_max              =   1.7927573411801E-03
(PID.TID 0000.0001) %MON advcfl_vvel_max              =   4.8668050764992E-03
(PID.TID 0000.0001) %MON advcfl_wvel_max              =   6.7137817770825E-09
(PID.TID 0000.0001) %MON advcfl_W_hf_max              =   0.0000000000000E+00
(PID.TID 0000.0001) %MON pe_b_mean                    =   2.1478665746967E-07
(PID.TID 0000.0001) %MON ke_max                       =   3.2839377679440E-03
(PID.TID 0000.0001) %MON ke_mean                      =   1.1580235766930E-04
(PID.TID 0000.0001) %MON ke_vol                       =   7.2000000000000E+15
(PID.TID 0000.0001) %MON vort_r_min                   =  -1.4921671565068E-06
(PID.TID 0000.0001) %MON vort_r_max                   =   2.2348916704868E-06
(PID.TID 0000.0001) %MON vort_a_mean                  =   1.0600000000000E-04
(PID.TID 0000.0001) %MON vort_a_sd                    =   3.5353855966952E-06
(PID.TID 0000.0001) %MON vort_p_mean                  =   1.1130000000000E-04
(PID.TID 0000.0001) %MON vort_p_sd                    =   4.1151369752340E-05
(PID.TID 0000.0001) %MON surfExpan_theta_mean         =  -8.6971940760350E-20
(PID.TID 0000.0001) %MON surfExpan_salt_mean          =  -1.3045605090017E-19
(PID.TID 0000.0001) // =======================================================
(PID.TID 0000.0001) // End MONITOR dynamic field statistics
(PID.TID 0000.0001) // =======================================================
 cg2d: Sum(rhs),rhsMax =  -3.88747741726124E-04  1.34709752004686E-01
 cg2d: Sum(rhs),rhsMax =  -3.88625812107993E-04  1.34712139077518E-01
 cg2d: Sum(rhs),rhsMax =  -3.88503466081187E-04  1.34714539050350E-01
 cg2d: Sum(rhs),rhsMax =  -3.88380703542452E-04  1.34716951916792E-01
 cg2d: Sum(rhs),rhsMax =  -3.88257524555535E-04  1.34719377670421E-01
 cg2d: Sum(rhs),rhsMax =  -3.88133929074213E-04  1.34721816304786E-01
 cg2d: Sum(rhs),rhsMax =  -3.88009917129517E-04  1.34724267813403E-01
 cg2d: Sum(rhs),rhsMax =  -3.87885488615478E-04  1.34726732189759E-01
 cg2d: Sum(rhs),rhsMax =  -3.87760643521491E-04  1.34729209427307E-01
 cg2d: Sum(rhs),rhsMax =  -3.87635381901156E-04  1.34731699519472E-01
 cg2d: Sum(rhs),rhsMax =  -3.87509703648837E-04  1.34734202459648E-01
 cg2d: Sum(rhs),rhsMax =  -3.87383608708680E-04  1.34736718241198E-01
 cg2d: Sum(rhs),rhsMax =  -3.87257097271852E-04  1.34739246857454E-01
 cg2d: Sum(rhs),rhsMax =  -3.87130169042604E-04  1.34741788301716E-01
 cg2d: Sum(rhs),rhsMax =  -3.87002824053037E-04  1.34744342567256E-01
 cg2d: Sum(rhs),rhsMax =  -3.86875062371428E-04  1.34746909647314E-01
 cg2d: Sum(rhs),rhsMax =  -3.86746883943011E-04  1.34749489535098E-01
 cg2d: Sum(rhs),rhsMax =  -3.86618288722055E-04  1.34752082223787E-01
 cg2d: Sum(rhs),rhsMax =  -3.86489276664719E-04  1.34754687706529E-01
 cg2d: Sum(rhs),rhsMax =  -3.86359847736061E-04  1.34757305976444E-01
 cg2d: Sum(rhs),rhsMax =  -3.86230001832184E-04  1.34759937026615E-01
 cg2d: Sum(rhs),rhsMax =  -3.86099738993386E-04  1.34762580850101E-01
 cg2d: Sum(rhs),rhsMax =  -3.85969059244200E-04  1.34765237439927E-01
 cg2d: Sum(rhs),rhsMax =  -3.85837962441482E-04  1.34767906789087E-01
 cg2d: Sum(rhs),rhsMax =  -3.85706448622020E-04  1.34770588890548E-01
 cg2d: Sum(rhs),rhsMax =  -3.85574517663924E-04  1.34773283737244E-01
 cg2d: Sum(rhs),rhsMax =  -3.85442169466631E-04  1.34775991322078E-01
 cg2d: Sum(rhs),rhsMax =  -3.85309404151045E-04  1.34778711637924E-01
 cg2d: Sum(rhs),rhsMax =  -3.85176221610739E-04  1.34781444677626E-01
 cg2d: Sum(rhs),rhsMax =  -3.85042621638364E-04  1.34784190433996E-01
 cg2d: Sum(rhs),rhsMax =  -3.84908604336831E-04  1.34786948899817E-01
 cg2d: Sum(rhs),rhsMax =  -3.84774169649686E-04  1.34789720067840E-01
 cg2d: Sum(rhs),rhsMax =  -3.84639317468824E-04  1.34792503930789E-01
 cg2d: Sum(rhs),rhsMax =  -3.84504047718756E-04  1.34795300481353E-01
 cg2d: Sum(rhs),rhsMax =  -3.84368360444693E-04  1.34798109712196E-01
 cg2d: Sum(rhs),rhsMax =  -3.84232255426275E-04  1.34800931615947E-01
 cg2d: Sum(rhs),rhsMax =  -3.84095732680049E-04  1.34803766185207E-01
 cg2d: Sum(rhs),rhsMax =  -3.83958792152244E-04  1.34806613412548E-01
 cg2d: Sum(rhs),rhsMax =  -3.83821433748341E-04  1.34809473290511E-01
 cg2d: Sum(rhs),rhsMax =  -3.83683657347773E-04  1.34812345811604E-01
 cg2d: Sum(rhs),rhsMax =  -3.83545462918832E-04  1.34815230968309E-01
 cg2d: Sum(rhs),rhsMax =  -3.83406850262155E-04  1.34818128753076E-01
 cg2d: Sum(rhs),rhsMax =  -3.83267819478439E-04  1.34821039158326E-01
 cg2d: Sum(rhs),rhsMax =  -3.83128370430406E-04  1.34823962176448E-01
 cg2d: Sum(rhs),rhsMax =  -3.82988502888266E-04  1.34826897799801E-01
 cg2d: Sum(rhs),rhsMax =  -3.82848216938270E-04  1.34829846020718E-01
 cg2d: Sum(rhs),rhsMax =  -3.82707512433540E-04  1.34832806831497E-01
 cg2d: Sum(rhs),rhsMax =  -3.82566389111919E-04  1.34835780224409E-01
 cg2d: Sum(rhs),rhsMax =  -3.82424847051309E-04  1.34838766191694E-01
 cg2d: Sum(rhs),rhsMax =  -3.82282886068605E-04  1.34841764725561E-01
 cg2d: Sum(rhs),rhsMax =  -3.82140506111359E-04  1.34844775818193E-01
 cg2d: Sum(rhs),rhsMax =  -3.81997707067103E-04  1.34847799461740E-01
 cg2d: Sum(rhs),rhsMax =  -3.81854488714599E-04  1.34850835648322E-01
 cg2d: Sum(rhs),rhsMax =  -3.81710850978699E-04  1.34853884370029E-01
 cg2d: Sum(rhs),rhsMax =  -3.81566793719087E-04  1.34856945618924E-01
 cg2d: Sum(rhs),rhsMax =  -3.81422316907878E-04  1.34860019387038E-01
 cg2d: Sum(rhs),rhsMax =  -3.81277420214519E-04  1.34863105666373E-01
 cg2d: Sum(rhs),rhsMax =  -3.81132103755088E-04  1.34866204448900E-01
 cg2d: Sum(rhs),rhsMax =  -3.80986367207084E-04  1.34869315726562E-01
 cg2d: Sum(rhs),rhsMax =  -3.80840210407014E-04  1.34872439491271E-01
 cg2d: Sum(rhs),rhsMax =  -3.80693633287958E-04  1.34875575734911E-01
 cg2d: Sum(rhs),rhsMax =  -3.80546635729529E-04  1.34878724449335E-01
 cg2d: Sum(rhs),rhsMax =  -3.80399217497285E-04  1.34881885626367E-01
 cg2d: Sum(rhs),rhsMax =  -3.80251378475333E-04  1.34885059257800E-01
 cg2d: Sum(rhs),rhsMax =  -3.80103118513159E-04  1.34888245335400E-01
 cg2d: Sum(rhs),rhsMax =  -3.79954437414465E-04  1.34891443850902E-01
 cg2d: Sum(rhs),rhsMax =  -3.79805334961683E-04  1.34894654796012E-01
 cg2d: Sum(rhs),rhsMax =  -3.79655811014905E-04  1.34897878162405E-01
 cg2d: Sum(rhs),rhsMax =  -3.79505865375859E-04  1.34901113941729E-01
 cg2d: Sum(rhs),rhsMax =  -3.79355497835443E-04  1.34904362125601E-01
 cg2d: Sum(rhs),rhsMax =  -3.79204708368194E-04  1.34907622705609E-01
 cg2d: Sum(rhs),rhsMax =  -3.79053496575593E-04  1.34910895673312E-01
(PID.TID 0000.0001)      cg2d_init_res =   8.85926361172258E-04
(PID.TID 0000.0001)      cg2d_iters(min,last) =      -1      75
(PID.TID 0000.0001)      cg2d_last_res =   9.59179753349545E-08
(PID.TID 0000.0001) // =======================================================
(PID.TID 0000.0001) // Begin MONITOR dynamic field statistics
(PID.TID 0000.0001) // =======================================================
(PID.TID 0000.0001) %MON time_tsnumber                =                 12240
(PID.TID 0000.0001) %MON time_secondsf                =   1.4688000000000E+07
(PID.TID 0000.0001) %MON dynstat_eta_max              =   4.3257027652544E-02
(PID.TID 0000.0001) %MON dynstat_eta_min              =  -2.2171682223871E-02
(PID.TID 0000.0001) %MON dynstat_eta_mean             =   2.5559617221120E-07
(PID.TID 0000.0001) %MON dynstat_eta_sd               =   1.5076527554549E-02
(PID.TID 0000.0001) %MON dynstat_eta_del2             =   1.7499324008259E-05
(PID.TID 0000.0001) %MON dynstat_uvel_max             =   2.9860658129371E-02
(PID.TID 0000.0001) %MON dynstat_uvel_min             =  -1.3681722541801E-02
(PID.TID 0000.0001) %MON dynstat_uvel_mean            =  -1.2012930037805E-07
(PID.TID 0000.0001) %MON dynstat_uvel_sd              =   6.5066314055373E-03
(PID.TID 0000.0001) %MON dynstat_uvel_del2            =   8.0596102495538E-06
(PID.TID 0000.0001) %MON dynstat_vvel_max             =   8.1181763591059E-02
(PID.TID 0000.0001) %MON dynstat_vvel_min             =  -3.2084002285485E-02
(PID.TID 0000.0001) %MON dynstat_vvel_mean            =  -1.4704553520226E-08
(PID.TID 0000.0001) %MON dynstat_vvel_sd              =   1.3953120171523E-02
(PID.TID 0000.0001) %MON dynstat_vvel_del2            =   7.1591831557967E-05
(PID.TID 0000.0001) %MON dynstat_wvel_max             =   1.4009235254707E-08
(PID.TID 0000.0001) %MON dynstat_wvel_min             =  -7.1975249904790E-09
(PID.TID 0000.0001) %MON dynstat_wvel_mean            =  -1.1172336497920E-21
(PID.TID 0000.0001) %MON dynstat_wvel_sd              =   5.2513364295575E-09
(PID.TID 0000.0001) %MON dynstat_wvel_del2            =   1.7319097772269E-12
(PID.TID 0000.0001) %MON dynstat_theta_max            =   2.0000000000000E+01
(PID.TID 0000.0001) %MON dynstat_theta_min            =   2.0000000000000E+01
(PID.TID 0000.0001) %MON dynstat_theta_mean           =   2.0000000000000E+01
(PID.TID 0000.0001) %MON dynstat_theta_sd             =   0.0000000000000E+00
(PID.TID 0000.0001) %MON dynstat_theta_del2           =   0.0000000000000E+00
(PID.TID 0000.0001) %MON dynstat_salt_max             =   3.0000000000000E+01
(PID.TID 0000.0001) %MON dynstat_salt_min             =   3.0000000000000E+01
(PID.TID 0000.0001) %MON dynstat_salt_mean            =   3.0000000000000E+01
(PID.TID 0000.0001) %MON dynstat_salt_sd              =   0.0000000000000E+00
(PID.TID 0000.0001) %MON dynstat_salt_del2            =   0.0000000000000E+00
(PID.TID 0000.0001) %MON trAdv_CFL_u_max              =   1.7916489033850E-03
(PID.TID 0000.0001) %MON trAdv_CFL_v_max              =   4.8708322131335E-03
(PID.TID 0000.0001) %MON trAdv_CFL_w_max              =   3.3621072097099E-09
(PID.TID 0000.0001) %MON advcfl_uvel_max              =   1.7916394877623E-03
(PID.TID 0000.0001) %MON advcfl_vvel_max              =   4.8709058154636E-03
(PID.TID 0000.0001) %MON advcfl_wvel_max              =   6.7244329222594E-09
(PID.TID 0000.0001) %MON advcfl_W_hf_max              =   0.0000000000000E+00
(PID.TID 0000.0001) %MON pe_b_mean                    =   2.2298295118820E-07
(PID.TID 0000.0001) %MON ke_max                       =   3.2887489037388E-03
(PID.TID 0000.0001) %MON ke_mean                      =   1.1653769226838E-04
(PID.TID 0000.0001) %MON ke_vol                       =   7.2000000000000E+15
(PID.TID 0000.0001) %MON vort_r_min                   =  -1.4902954019111E-06
(PID.TID 0000.0001) %MON vort_r_max                   =   2.2397409402198E-06
(PID.TID 0000.0001) %MON vort_a_mean                  =   1.0600000000000E-04
(PID.TID 0000.0001) %MON vort_a_sd                    =   3.5353706732897E-06
(PID.TID 0000.0001) %MON vort_p_mean                  =   1.1130000000000E-04
(PID.TID 0000.0001) %MON vort_p_sd                    =   4.1151544525027E-05
(PID.TID 0000.0001) %MON surfExpan_theta_mean         =  -2.2323994504821E-20
(PID.TID 0000.0001) %MON surfExpan_salt_mean          =  -3.3483305017512E-20
(PID.TID 0000.0001) // =======================================================
(PID.TID 0000.0001) // End MONITOR dynamic field statistics
(PID.TID 0000.0001) // =======================================================
 cg2d: Sum(rhs),rhsMax =  -3.78901862332664E-04  1.34914181020239E-01
 cg2d: Sum(rhs),rhsMax =  -3.78749805501752E-04  1.34917478737890E-01
 cg2d: Sum(rhs),rhsMax =  -3.78597325745733E-04  1.34920788817735E-01
 cg2d: Sum(rhs),rhsMax =  -3.78444422919592E-04  1.34924111251217E-01
 cg2d: Sum(rhs),rhsMax =  -3.78291096760019E-04  1.34927446029747E-01
 cg2d: Sum(rhs),rhsMax =  -3.78137347130749E-04  1.34930793144709E-01
 cg2d: Sum(rhs),rhsMax =  -3.77983173689815E-04  1.34934152587455E-01
 cg2d: Sum(rhs),rhsMax =  -3.77828576344027E-04  1.34937524349312E-01
 cg2d: Sum(rhs),rhsMax =  -3.77673554629838E-04  1.34940908421574E-01
 cg2d: Sum(rhs),rhsMax =  -3.77518108553712E-04  1.34944304795507E-01
 cg2d: Sum(rhs),rhsMax =  -3.77362237863221E-04  1.34947713462352E-01
 cg2d: Sum(rhs),rhsMax =  -3.77205942002300E-04  1.34951134413312E-01
 cg2d: Sum(rhs),rhsMax =  -3.77049221067820E-04  1.34954567639570E-01
 cg2d: Sum(rhs),rhsMax =  -3.76892074606429E-04  1.34958013132274E-01
 cg2d: Sum(rhs),rhsMax =  -3.76734502312895E-04  1.34961470882548E-01
 cg2d: Sum(rhs),rhsMax =  -3.76576504007115E-04  1.34964940881482E-01
 cg2d: Sum(rhs),rhsMax =  -3.76418079407090E-04  1.34968423120140E-01
 cg2d: Sum(rhs),rhsMax =  -3.76259228152962E-04  1.34971917589558E-01
 cg2d: Sum(rhs),rhsMax =  -3.76099949978550E-04  1.34975424280738E-01
 cg2d: Sum(rhs),rhsMax =  -3.75940244620948E-04  1.34978943184661E-01
 cg2d: Sum(rhs),rhsMax =  -3.75780111806443E-04  1.34982474292273E-01
 cg2d: Sum(rhs),rhsMax =  -3.75619551178837E-04  1.34986017594493E-01
 cg2d: Sum(rhs),rhsMax =  -3.75458562482995E-04  1.34989573082212E-01
 cg2d: Sum(rhs),rhsMax =  -3.75297145312673E-04  1.34993140746292E-01
 cg2d: Sum(rhs),rhsMax =  -3.75135299407516E-04  1.34996720577565E-01
 cg2d: Sum(rhs),rhsMax =  -3.74973024346833E-04  1.35000312566838E-01
 cg2d: Sum(rhs),rhsMax =  -3.74810319867741E-04  1.35003916704882E-01
 cg2d: Sum(rhs),rhsMax =  -3.74647185666457E-04  1.35007532982449E-01
 cg2d: Sum(rhs),rhsMax =  -3.74483621369727E-04  1.35011161390254E-01
 cg2d: Sum(rhs),rhsMax =  -3.74319626539960E-04  1.35014801918989E-01
 cg2d: Sum(rhs),rhsMax =  -3.74155200872155E-04  1.35018454559313E-01
 cg2d: Sum(rhs),rhsMax =  -3.73990343955266E-04  1.35022119301862E-01
 cg2d: Sum(rhs),rhsMax =  -3.73825055596324E-04  1.35025796137237E-01
 cg2d: Sum(rhs),rhsMax =  -3.73659335314976E-04  1.35029485056016E-01
 cg2d: Sum(rhs),rhsMax =  -3.73493182667367E-04  1.35033186048747E-01
 cg2d: Sum(rhs),rhsMax =  -3.73326597177986E-04  1.35036899105948E-01
 cg2d: Sum(rhs),rhsMax =  -3.73159578729862E-04  1.35040624218109E-01
 cg2d: Sum(rhs),rhsMax =  -3.72992126714192E-04  1.35044361375693E-01
 cg2d: Sum(rhs),rhsMax =  -3.72824240799035E-04  1.35048110569133E-01
 cg2d: Sum(rhs),rhsMax =  -3.72655920455242E-04  1.35051871788838E-01
 cg2d: Sum(rhs),rhsMax =  -3.72487165446055E-04  1.35055645025181E-01
 cg2d: Sum(rhs),rhsMax =  -3.72317975221182E-04  1.35059430268515E-01
 cg2d: Sum(rhs),rhsMax =  -3.72148349347796E-04  1.35063227509158E-01
 cg2d: Sum(rhs),rhsMax =  -3.71978287472002E-04  1.35067036737405E-01
 cg2d: Sum(rhs),rhsMax =  -3.71807789070602E-04  1.35070857943520E-01
 cg2d: Sum(rhs),rhsMax =  -3.71636853676057E-04  1.35074691117739E-01
 cg2d: Sum(rhs),rhsMax =  -3.71465480859924E-04  1.35078536250270E-01
 cg2d: Sum(rhs),rhsMax =  -3.71293670223500E-04  1.35082393331294E-01
 cg2d: Sum(rhs),rhsMax =  -3.71121421204581E-04  1.35086262350964E-01
 cg2d: Sum(rhs),rhsMax =  -3.70948733352297E-04  1.35090143299404E-01
 cg2d: Sum(rhs),rhsMax =  -3.70775606111224E-04  1.35094036166709E-01
 cg2d: Sum(rhs),rhsMax =  -3.70602039070972E-04  1.35097940942949E-01
 cg2d: Sum(rhs),rhsMax =  -3.70428031734586E-04  1.35101857618163E-01
 cg2d: Sum(rhs),rhsMax =  -3.70253583549196E-04  1.35105786182366E-01
 cg2d: Sum(rhs),rhsMax =  -3.70078694065116E-04  1.35109726625540E-01
 cg2d: Sum(rhs),rhsMax =  -3.69903362730617E-04  1.35113678937643E-01
 cg2d: Sum(rhs),rhsMax =  -3.69727589054561E-04  1.35117643108604E-01
 cg2d: Sum(rhs),rhsMax =  -3.69551372473004E-04  1.35121619128324E-01
 cg2d: Sum(rhs),rhsMax =  -3.69374712326267E-04  1.35125606986677E-01
 cg2d: Sum(rhs),rhsMax =  -3.69197608336149E-04  1.35129606673509E-01
 cg2d: Sum(rhs),rhsMax =  -3.69020059725726E-04  1.35133618178637E-01
 cg2d: Sum(rhs),rhsMax =  -3.68842065926129E-04  1.35137641491852E-01
 cg2d: Sum(rhs),rhsMax =  -3.68663626518057E-04  1.35141676602917E-01
 cg2d: Sum(rhs),rhsMax =  -3.68484740877370E-04  1.35145723501568E-01
 cg2d: Sum(rhs),rhsMax =  -3.68305408287987E-04  1.35149782177510E-01
 cg2d: Sum(rhs),rhsMax =  -3.68125628355431E-04  1.35153852620426E-01
 cg2d: Sum(rhs),rhsMax =  -3.67945400432252E-04  1.35157934819967E-01
 cg2d: Sum(rhs),rhsMax =  -3.67764723815534E-04  1.35162028765758E-01
 cg2d: Sum(rhs),rhsMax =  -3.67583597967913E-04  1.35166134447398E-01
 cg2d: Sum(rhs),rhsMax =  -3.67402022258575E-04  1.35170251854456E-01
 cg2d: Sum(rhs),rhsMax =  -3.67219996091007E-04  1.35174380976474E-01
 cg2d: Sum(rhs),rhsMax =  -3.67037518728418E-04  1.35178521802970E-01
(PID.TID 0000.0001)      cg2d_init_res =   8.84703643947957E-04
(PID.TID 0000.0001)      cg2d_iters(min,last) =      -1      75
(PID.TID 0000.0001)      cg2d_last_res =   9.96826165152218E-08
(PID.TID 0000.0001) // =======================================================
(PID.TID 0000.0001) // Begin MONITOR dynamic field statistics
(PID.TID 0000.0001) // =======================================================
(PID.TID 0000.0001) %MON time_tsnumber                =                 12312
(PID.TID 0000.0001) %MON time_secondsf                =   1.4774400000000E+07
(PID.TID 0000.0001) %MON dynstat_eta_max              =   4.3032775594234E-02
(PID.TID 0000.0001) %MON dynstat_eta_min              =  -2.2549163242242E-02
(PID.TID 0000.0001) %MON dynstat_eta_mean             =   2.4796192258132E-07
(PID.TID 0000.0001) %MON dynstat_eta_sd               =   1.5372269234175E-02
(PID.TID 0000.0001) %MON dynstat_eta_del2             =   1.7464476073783E-05
(PID.TID 0000.0001) %MON dynstat_uvel_max             =   2.9856842961926E-02
(PID.TID 0000.0001) %MON dynstat_uvel_min             =  -1.3791203095380E-02
(PID.TID 0000.0001) %MON dynstat_uvel_mean            =  -1.4207099929594E-07
(PID.TID 0000.0001) %MON dynstat_uvel_sd              =   6.6145645890659E-03
(PID.TID 0000.0001) %MON dynstat_uvel_del2            =   8.1241930782856E-06
(PID.TID 0000.0001) %MON dynstat_vvel_max             =   8.1290185076583E-02
(PID.TID 0000.0001) %MON dynstat_vvel_min             =  -3.1796786487390E-02
(PID.TID 0000.0001) %MON dynstat_vvel_mean            =  -1.4245761477999E-08
(PID.TID 0000.0001) %MON dynstat_vvel_sd              =   1.3964420783956E-02
(PID.TID 0000.0001) %MON dynstat_vvel_del2            =   7.1533577673604E-05
(PID.TID 0000.0001) %MON dynstat_wvel_max             =   1.3961004694356E-08
(PID.TID 0000.0001) %MON dynstat_wvel_min             =  -7.3808537010336E-09
(PID.TID 0000.0001) %MON dynstat_wvel_mean            =  -1.0643637122282E-21
(PID.TID 0000.0001) %MON dynstat_wvel_sd              =   5.2372935864010E-09
(PID.TID 0000.0001) %MON dynstat_wvel_del2            =   1.7116928255296E-12
(PID.TID 0000.0001) %MON dynstat_theta_max            =   2.0000000000000E+01
(PID.TID 0000.0001) %MON dynstat_theta_min            =   2.0000000000000E+01
(PID.TID 0000.0001) %MON dynstat_theta_mean           =   2.0000000000000E+01
(PID.TID 0000.0001) %MON dynstat_theta_sd             =   0.0000000000000E+00
(PID.TID 0000.0001) %MON dynstat_theta_del2           =   0.0000000000000E+00
(PID.TID 0000.0001) %MON dynstat_salt_max             =   3.0000000000000E+01
(PID.TID 0000.0001) %MON dynstat_salt_min             =   3.0000000000000E+01
(PID.TID 0000.0001) %MON dynstat_salt_mean            =   3.0000000000000E+01
(PID.TID 0000.0001) %MON dynstat_salt_sd              =   0.0000000000000E+00
(PID.TID 0000.0001) %MON dynstat_salt_del2            =   0.0000000000000E+00
(PID.TID 0000.0001) %MON trAdv_CFL_u_max              =   1.7914077253561E-03
(PID.TID 0000.0001) %MON trAdv_CFL_v_max              =   4.8773046757740E-03
(PID.TID 0000.0001) %MON trAdv_CFL_w_max              =   3.3510636345134E-09
(PID.TID 0000.0001) %MON advcfl_uvel_max              =   1.7914105777156E-03
(PID.TID 0000.0001) %MON advcfl_vvel_max              =   4.8774111045950E-03
(PID.TID 0000.0001) %MON advcfl_wvel_max              =   6.7012822532910E-09
(PID.TID 0000.0001) %MON advcfl_W_hf_max              =   0.0000000000000E+00
(PID.TID 0000.0001) %MON pe_b_mean                    =   2.3181683490154E-07
(PID.TID 0000.0001) %MON ke_max                       =   3.2973986597636E-03
(PID.TID 0000.0001) %MON ke_mean                      =   1.1738911033939E-04
(PID.TID 0000.0001) %MON ke_vol                       =   7.2000000000000E+15
(PID.TID 0000.0001) %MON vort_r_min                   =  -1.4885143683167E-06
(PID.TID 0000.0001) %MON vort_r_max                   =   2.2456491176117E-06
(PID.TID 0000.0001) %MON vort_a_mean                  =   1.0600000000000E-04
(PID.TID 0000.0001) %MON vort_a_sd                    =   3.5353684499635E-06
(PID.TID 0000.0001) %MON vort_p_mean                  =   1.1130000000000E-04
(PID.TID 0000.0001) %MON vort_p_sd                    =   4.1151714553851E-05
(PID.TID 0000.0001) %MON surfExpan_theta_mean         =  -2.1285644851648E-20
(PID.TID 0000.0001) %MON surfExpan_salt_mean          =  -3.1932575102663E-20
(PID.TID 0000.0001) // =======================================================
(PID.TID 0000.0001) // End MONITOR dynamic field statistics
(PID.TID 0000.0001) // =======================================================
 cg2d: Sum(rhs),rhsMax =  -3.66854589637705E-04  1.35182674323430E-01
 cg2d: Sum(rhs),rhsMax =  -3.66671208194724E-04  1.35186838527315E-01
 cg2d: Sum(rhs),rhsMax =  -3.66487373645643E-04  1.35191014404060E-01
 cg2d: Sum(rhs),rhsMax =  -3.66303085437541E-04  1.35195201943070E-01
 cg2d: Sum(rhs),rhsMax =  -3.66118342784711E-04  1.35199401133725E-01
 cg2d: Sum(rhs),rhsMax =  -3.65933145083516E-04  1.35203611965375E-01
 cg2d: Sum(rhs),rhsMax =  -3.65747491566059E-04  1.35207834427347E-01
 cg2d: Sum(rhs),rhsMax =  -3.65561381639512E-04  1.35212068508937E-01
 cg2d: Sum(rhs),rhsMax =  -3.65374814575208E-04  1.35216314199417E-01
 cg2d: Sum(rhs),rhsMax =  -3.65187789656348E-04  1.35220571488030E-01
 cg2d: Sum(rhs),rhsMax =  -3.65040490891162E-04  1.35224840656043E-01
 cg2d: Sum(rhs),rhsMax =  -3.64892781371935E-04  1.35229121093399E-01
 cg2d: Sum(rhs),rhsMax =  -3.64744700935437E-04  1.35233413106539E-01
 cg2d: Sum(rhs),rhsMax =  -3.64596225244959E-04  1.35237716678339E-01
 cg2d: Sum(rhs),rhsMax =  -3.64447347922544E-04  1.35242031793559E-01
 cg2d: Sum(rhs),rhsMax =  -3.64298068170423E-04  1.35246358440462E-01
 cg2d: Sum(rhs),rhsMax =  -3.64148387305001E-04  1.35250696608591E-01
 cg2d: Sum(rhs),rhsMax =  -3.63998306517313E-04  1.35255046287614E-01
 cg2d: Sum(rhs),rhsMax =  -3.63847826345520E-04  1.35259407466842E-01
 cg2d: Sum(rhs),rhsMax =  -3.63696945928056E-04  1.35263780135314E-01
 cg2d: Sum(rhs),rhsMax =  -3.63545663905131E-04  1.35268164281929E-01
 cg2d: Sum(rhs),rhsMax =  -3.63393978930533E-04  1.35272559895543E-01
 cg2d: Sum(rhs),rhsMax =  -3.63241889771444E-04  1.35276966964998E-01
 cg2d: Sum(rhs),rhsMax =  -3.63089395565614E-04  1.35281385479134E-01
 cg2d: Sum(rhs),rhsMax =  -3.62936495552539E-04  1.35285815426798E-01
 cg2d: Sum(rhs),rhsMax =  -3.62783188926814E-04  1.35290256796816E-01
 cg2d: Sum(rhs),rhsMax =  -3.62629474962831E-04  1.35294709577997E-01
 cg2d: Sum(rhs),rhsMax =  -3.62475352718785E-04  1.35299173759110E-01
 cg2d: Sum(rhs),rhsMax =  -3.62320821366336E-04  1.35303649328895E-01
 cg2d: Sum(rhs),rhsMax =  -3.62165879937244E-04  1.35308136276056E-01
 cg2d: Sum(rhs),rhsMax =  -3.62010527344168E-04  1.35312634589269E-01
 cg2d: Sum(rhs),rhsMax =  -3.61854762797039E-04  1.35317144257186E-01
 cg2d: Sum(rhs),rhsMax =  -3.61698585484974E-04  1.35321665268435E-01
 cg2d: Sum(rhs),rhsMax =  -3.61541994276510E-04  1.35326197611618E-01
 cg2d: Sum(rhs),rhsMax =  -3.61384988405874E-04  1.35330741275316E-01
 cg2d: Sum(rhs),rhsMax =  -3.61227566836182E-04  1.35335296248079E-01
 cg2d: Sum(rhs),rhsMax =  -3.61069728625334E-04  1.35339862518435E-01
 cg2d: Sum(rhs),rhsMax =  -3.60911472797796E-04  1.35344440074883E-01
 cg2d: Sum(rhs),rhsMax =  -3.60752798557790E-04  1.35349028905893E-01
 cg2d: Sum(rhs),rhsMax =  -3.60593704671330E-04  1.35353628999913E-01
 cg2d: Sum(rhs),rhsMax =  -3.60434190365772E-04  1.35358240345362E-01
 cg2d: Sum(rhs),rhsMax =  -3.60274254615588E-04  1.35362862930636E-01
 cg2d: Sum(rhs),rhsMax =  -3.60113896418423E-04  1.35367496744099E-01
 cg2d: Sum(rhs),rhsMax =  -3.59953114649102E-04  1.35372141774097E-01
 cg2d: Sum(rhs),rhsMax =  -3.59791908580685E-04  1.35376798008943E-01
 cg2d: Sum(rhs),rhsMax =  -3.59630277033731E-04  1.35381465436930E-01
 cg2d: Sum(rhs),rhsMax =  -3.59468219050482E-04  1.35386144046320E-01
 cg2d: Sum(rhs),rhsMax =  -3.59305733564955E-04  1.35390833825354E-01
 cg2d: Sum(rhs),rhsMax =  -3.59142819584047E-04  1.35395534762243E-01
 cg2d: Sum(rhs),rhsMax =  -3.58979476023284E-04  1.35400246845175E-01
 cg2d: Sum(rhs),rhsMax =  -3.58815701958572E-04  1.35404970062311E-01
 cg2d: Sum(rhs),rhsMax =  -3.58651496243974E-04  1.35409704401787E-01
 cg2d: Sum(rhs),rhsMax =  -3.58486857828159E-04  1.35414449851711E-01
 cg2d: Sum(rhs),rhsMax =  -3.58321785730952E-04  1.35419206400169E-01
 cg2d: Sum(rhs),rhsMax =  -3.58156278790969E-04  1.35423974035220E-01
 cg2d: Sum(rhs),rhsMax =  -3.57990336072705E-04  1.35428752744895E-01
 cg2d: Sum(rhs),rhsMax =  -3.57823956321969E-04  1.35433542517202E-01
 cg2d: Sum(rhs),rhsMax =  -3.57657138582183E-04  1.35438343340124E-01
 cg2d: Sum(rhs),rhsMax =  -3.57489881722292E-04  1.35443155201616E-01
 cg2d: Sum(rhs),rhsMax =  -3.57322184689069E-04  1.35447978089611E-01
 cg2d: Sum(rhs),rhsMax =  -3.57154046297721E-04  1.35452811992012E-01
 cg2d: Sum(rhs),rhsMax =  -3.56985465478576E-04  1.35457656896701E-01
 cg2d: Sum(rhs),rhsMax =  -3.56816441124961E-04  1.35462512791532E-01
 cg2d: Sum(rhs),rhsMax =  -3.56646972145695E-04  1.35467379664336E-01
 cg2d: Sum(rhs),rhsMax =  -3.56477057384560E-04  1.35472257502915E-01
 cg2d: Sum(rhs),rhsMax =  -3.56306695647468E-04  1.35477146295049E-01
 cg2d: Sum(rhs),rhsMax =  -3.56135885788901E-04  1.35482046028492E-01
 cg2d: Sum(rhs),rhsMax =  -3.55964626832898E-04  1.35486956690973E-01
 cg2d: Sum(rhs),rhsMax =  -3.55792917504569E-04  1.35491878270195E-01
 cg2d: Sum(rhs),rhsMax =  -3.55620756583599E-04  1.35496810753837E-01
 cg2d: Sum(rhs),rhsMax =  -3.55448143029432E-04  1.35501754129551E-01
 cg2d: Sum(rhs),rhsMax =  -3.55275075508599E-04  1.35506708384967E-01
(PID.TID 0000.0001)      cg2d_init_res =   8.83683573581216E-04
(PID.TID 0000.0001)      cg2d_iters(min,last) =      -1      76
(PID.TID 0000.0001)      cg2d_last_res =   7.66784053247238E-08
(PID.TID 0000.0001) // =======================================================
(PID.TID 0000.0001) // Begin MONITOR dynamic field statistics
(PID.TID 0000.0001) // =======================================================
(PID.TID 0000.0001) %MON time_tsnumber                =                 12384
(PID.TID 0000.0001) %MON time_secondsf                =   1.4860800000000E+07
(PID.TID 0000.0001) %MON dynstat_eta_max              =   4.2875245178225E-02
(PID.TID 0000.0001) %MON dynstat_eta_min              =  -2.2902869975385E-02
(PID.TID 0000.0001) %MON dynstat_eta_mean             =   2.4060202852525E-07
(PID.TID 0000.0001) %MON dynstat_eta_sd               =   1.5679528847856E-02
(PID.TID 0000.0001) %MON dynstat_eta_del2             =   1.7433037426975E-05
(PID.TID 0000.0001) %MON dynstat_uvel_max             =   2.9867596189778E-02
(PID.TID 0000.0001) %MON dynstat_uvel_min             =  -1.4096430530923E-02
(PID.TID 0000.0001) %MON dynstat_uvel_mean            =  -1.6198770153381E-07
(PID.TID 0000.0001) %MON dynstat_uvel_sd              =   6.7203020053938E-03
(PID.TID 0000.0001) %MON dynstat_uvel_del2            =   8.1885740822352E-06
(PID.TID 0000.0001) %MON dynstat_vvel_max             =   8.1437130387874E-02
(PID.TID 0000.0001) %MON dynstat_vvel_min             =  -3.1510024502509E-02
(PID.TID 0000.0001) %MON dynstat_vvel_mean            =  -1.3664945629826E-08
(PID.TID 0000.0001) %MON dynstat_vvel_sd              =   1.3983530617291E-02
(PID.TID 0000.0001) %MON dynstat_vvel_del2            =   7.1502379841958E-05
(PID.TID 0000.0001) %MON dynstat_wvel_max             =   1.3863772534605E-08
(PID.TID 0000.0001) %MON dynstat_wvel_min             =  -7.5277076812927E-09
(PID.TID 0000.0001) %MON dynstat_wvel_mean            =  -4.1724820221134E-21
(PID.TID 0000.0001) %MON dynstat_wvel_sd              =   5.2204559891492E-09
(PID.TID 0000.0001) %MON dynstat_wvel_del2            =   1.6939298198100E-12
(PID.TID 0000.0001) %MON dynstat_theta_max            =   2.0000000000000E+01
(PID.TID 0000.0001) %MON dynstat_theta_min            =   2.0000000000000E+01
(PID.TID 0000.0001) %MON dynstat_theta_mean           =   2.0000000000000E+01
(PID.TID 0000.0001) %MON dynstat_theta_sd             =   0.0000000000000E+00
(PID.TID 0000.0001) %MON dynstat_theta_del2           =   0.0000000000000E+00
(PID.TID 0000.0001) %MON dynstat_salt_max             =   3.0000000000000E+01
(PID.TID 0000.0001) %MON dynstat_salt_min             =   3.0000000000000E+01
(PID.TID 0000.0001) %MON dynstat_salt_mean            =   3.0000000000000E+01
(PID.TID 0000.0001) %MON dynstat_salt_sd              =   0.0000000000000E+00
(PID.TID 0000.0001) %MON dynstat_salt_del2            =   0.0000000000000E+00
(PID.TID 0000.0001) %MON trAdv_CFL_u_max              =   1.7920409252895E-03
(PID.TID 0000.0001) %MON trAdv_CFL_v_max              =   4.8860900596493E-03
(PID.TID 0000.0001) %MON trAdv_CFL_w_max              =   3.3277468875982E-09
(PID.TID 0000.0001) %MON advcfl_uvel_max              =   1.7920557713867E-03
(PID.TID 0000.0001) %MON advcfl_vvel_max              =   4.8862278232724E-03
(PID.TID 0000.0001) %MON advcfl_wvel_max              =   6.6546108166105E-09
(PID.TID 0000.0001) %MON advcfl_W_hf_max              =   0.0000000000000E+00
(PID.TID 0000.0001) %MON pe_b_mean                    =   2.4117652007460E-07
(PID.TID 0000.0001) %MON ke_max                       =   3.3100326818146E-03
(PID.TID 0000.0001) %MON ke_mean                      =   1.1834494723413E-04
(PID.TID 0000.0001) %MON ke_vol                       =   7.2000000000000E+15
(PID.TID 0000.0001) %MON vort_r_min                   =  -1.4868529536713E-06
(PID.TID 0000.0001) %MON vort_r_max                   =   2.2526012975877E-06
(PID.TID 0000.0001) %MON vort_a_mean                  =   1.0600000000000E-04
(PID.TID 0000.0001) %MON vort_a_sd                    =   3.5353787654062E-06
(PID.TID 0000.0001) %MON vort_p_mean                  =   1.1130000000000E-04
(PID.TID 0000.0001) %MON vort_p_sd                    =   4.1151878387901E-05
(PID.TID 0000.0001) %MON surfExpan_theta_mean         =  -8.3462565254106E-20
(PID.TID 0000.0001) %MON surfExpan_salt_mean          =  -1.2519574512895E-19
(PID.TID 0000.0001) // =======================================================
(PID.TID 0000.0001) // End MONITOR dynamic field statistics
(PID.TID 0000.0001) // =======================================================
 cg2d: Sum(rhs),rhsMax =  -3.55101552918059E-04  1.35511673507687E-01
 cg2d: Sum(rhs),rhsMax =  -3.54927574130062E-04  1.35516649485290E-01
 cg2d: Sum(rhs),rhsMax =  -3.54753137851414E-04  1.35521636305328E-01
 cg2d: Sum(rhs),rhsMax =  -3.54578242928070E-04  1.35526633955330E-01
 cg2d: Sum(rhs),rhsMax =  -3.54402888162410E-04  1.35531642422802E-01
 cg2d: Sum(rhs),rhsMax =  -3.54227072269329E-04  1.35536661695220E-01
 cg2d: Sum(rhs),rhsMax =  -3.54050794069619E-04  1.35541691760038E-01
 cg2d: Sum(rhs),rhsMax =  -3.53874052367552E-04  1.35546732604687E-01
 cg2d: Sum(rhs),rhsMax =  -3.53696845882054E-04  1.35551784216570E-01
 cg2d: Sum(rhs),rhsMax =  -3.53519173414712E-04  1.35556846583067E-01
 cg2d: Sum(rhs),rhsMax =  -3.53341033644135E-04  1.35561919691533E-01
 cg2d: Sum(rhs),rhsMax =  -3.53162425378474E-04  1.35567003529300E-01
 cg2d: Sum(rhs),rhsMax =  -3.52983347279585E-04  1.35572098083673E-01
 cg2d: Sum(rhs),rhsMax =  -3.52803041455907E-04  1.35577494134661E-01
 cg2d: Sum(rhs),rhsMax =  -3.52622007770590E-04  1.35582999468914E-01
 cg2d: Sum(rhs),rhsMax =  -3.52440501756200E-04  1.35588515402123E-01
 cg2d: Sum(rhs),rhsMax =  -3.52258522225606E-04  1.35594041921600E-01
 cg2d: Sum(rhs),rhsMax =  -3.52076067828831E-04  1.35599579014631E-01
 cg2d: Sum(rhs),rhsMax =  -3.51893137240707E-04  1.35605126668479E-01
 cg2d: Sum(rhs),rhsMax =  -3.51709729173660E-04  1.35610684870382E-01
 cg2d: Sum(rhs),rhsMax =  -3.51525842341254E-04  1.35616253607557E-01
 cg2d: Sum(rhs),rhsMax =  -3.51341475441289E-04  1.35621832867193E-01
 cg2d: Sum(rhs),rhsMax =  -3.51156627065344E-04  1.35627422636455E-01
 cg2d: Sum(rhs),rhsMax =  -3.50971295901331E-04  1.35633022902487E-01
 cg2d: Sum(rhs),rhsMax =  -3.50785480642637E-04  1.35638633652407E-01
 cg2d: Sum(rhs),rhsMax =  -3.50599179958534E-04  1.35644254873308E-01
 cg2d: Sum(rhs),rhsMax =  -3.50412392427273E-04  1.35649886552261E-01
 cg2d: Sum(rhs),rhsMax =  -3.50225116733677E-04  1.35655528676312E-01
 cg2d: Sum(rhs),rhsMax =  -3.50037351567689E-04  1.35661181232483E-01
 cg2d: Sum(rhs),rhsMax =  -3.49849095390446E-04  1.35666844207772E-01
 cg2d: Sum(rhs),rhsMax =  -3.49660346922302E-04  1.35672517589155E-01
 cg2d: Sum(rhs),rhsMax =  -3.49471104874355E-04  1.35678201363581E-01
 cg2d: Sum(rhs),rhsMax =  -3.49281367678454E-04  1.35683895517979E-01
 cg2d: Sum(rhs),rhsMax =  -3.49091134058769E-04  1.35689600039249E-01
 cg2d: Sum(rhs),rhsMax =  -3.48900402451606E-04  1.35695314914274E-01
 cg2d: Sum(rhs),rhsMax =  -3.48709171610680E-04  1.35701040129908E-01
 cg2d: Sum(rhs),rhsMax =  -3.48517439957896E-04  1.35706775672985E-01
 cg2d: Sum(rhs),rhsMax =  -3.48325206178310E-04  1.35712521530311E-01
 cg2d: Sum(rhs),rhsMax =  -3.48132468887111E-04  1.35718277688672E-01
 cg2d: Sum(rhs),rhsMax =  -3.47939226515060E-04  1.35724044134831E-01
 cg2d: Sum(rhs),rhsMax =  -3.47745477623468E-04  1.35729820855524E-01
 cg2d: Sum(rhs),rhsMax =  -3.47551220845229E-04  1.35735607837468E-01
 cg2d: Sum(rhs),rhsMax =  -3.47356454709896E-04  1.35741405067352E-01
 cg2d: Sum(rhs),rhsMax =  -3.47161177597384E-04  1.35747212531845E-01
 cg2d: Sum(rhs),rhsMax =  -3.46965388161508E-04  1.35753030217592E-01
 cg2d: Sum(rhs),rhsMax =  -3.46769084860545E-04  1.35758858111212E-01
 cg2d: Sum(rhs),rhsMax =  -3.46572266294018E-04  1.35764696199306E-01
 cg2d: Sum(rhs),rhsMax =  -3.46374930881634E-04  1.35770544468446E-01
 cg2d: Sum(rhs),rhsMax =  -3.46177077105389E-04  1.35776402905185E-01
 cg2d: Sum(rhs),rhsMax =  -3.45978703605203E-04  1.35782271496051E-01
 cg2d: Sum(rhs),rhsMax =  -3.45779808595424E-04  1.35788150227549E-01
 cg2d: Sum(rhs),rhsMax =  -3.45580390856139E-04  1.35794039086162E-01
 cg2d: Sum(rhs),rhsMax =  -3.45380448588850E-04  1.35799938058348E-01
 cg2d: Sum(rhs),rhsMax =  -3.45179980405838E-04  1.35805847130544E-01
 cg2d: Sum(rhs),rhsMax =  -3.44978984684969E-04  1.35811766289162E-01
 cg2d: Sum(rhs),rhsMax =  -3.44777459971734E-04  1.35817695520594E-01
 cg2d: Sum(rhs),rhsMax =  -3.44575404612122E-04  1.35823634811204E-01
 cg2d: Sum(rhs),rhsMax =  -3.44372817013457E-04  1.35829584147340E-01
 cg2d: Sum(rhs),rhsMax =  -3.44169695746722E-04  1.35835543515322E-01
 cg2d: Sum(rhs),rhsMax =  -3.43966039118309E-04  1.35841512901448E-01
 cg2d: Sum(rhs),rhsMax =  -3.43761845666317E-04  1.35847492291995E-01
 cg2d: Sum(rhs),rhsMax =  -3.43557113638419E-04  1.35853481673217E-01
 cg2d: Sum(rhs),rhsMax =  -3.43351841510579E-04  1.35859481031342E-01
 cg2d: Sum(rhs),rhsMax =  -3.43146027655594E-04  1.35865490352580E-01
 cg2d: Sum(rhs),rhsMax =  -3.42939670510633E-04  1.35871509623117E-01
 cg2d: Sum(rhs),rhsMax =  -3.42732768416748E-04  1.35877538829115E-01
 cg2d: Sum(rhs),rhsMax =  -3.42525319758516E-04  1.35883577956713E-01
 cg2d: Sum(rhs),rhsMax =  -3.42317322874629E-04  1.35889626992030E-01
 cg2d: Sum(rhs),rhsMax =  -3.42108776158314E-04  1.35895685921162E-01
 cg2d: Sum(rhs),rhsMax =  -3.41899677978612E-04  1.35901754730180E-01
 cg2d: Sum(rhs),rhsMax =  -3.41690026569954E-04  1.35907833405135E-01
 cg2d: Sum(rhs),rhsMax =  -3.41479820376585E-04  1.35913921932057E-01
(PID.TID 0000.0001)      cg2d_init_res =   8.82453554280182E-04
(PID.TID 0000.0001)      cg2d_iters(min,last) =      -1      76
(PID.TID 0000.0001)      cg2d_last_res =   7.63021405458880E-08
(PID.TID 0000.0001) // =======================================================
(PID.TID 0000.0001) // Begin MONITOR dynamic field statistics
(PID.TID 0000.0001) // =======================================================
(PID.TID 0000.0001) %MON time_tsnumber                =                 12456
(PID.TID 0000.0001) %MON time_secondsf                =   1.4947200000000E+07
(PID.TID 0000.0001) %MON dynstat_eta_max              =   4.2785247737162E-02
(PID.TID 0000.0001) %MON dynstat_eta_min              =  -2.3229171144125E-02
(PID.TID 0000.0001) %MON dynstat_eta_mean             =   2.3192648627676E-07
(PID.TID 0000.0001) %MON dynstat_eta_sd               =   1.5993903031945E-02
(PID.TID 0000.0001) %MON dynstat_eta_del2             =   1.7405271748134E-05
(PID.TID 0000.0001) %MON dynstat_uvel_max             =   2.9892506904403E-02
(PID.TID 0000.0001) %MON dynstat_uvel_min             =  -1.4423760109087E-02
(PID.TID 0000.0001) %MON dynstat_uvel_mean            =  -1.7965950591552E-07
(PID.TID 0000.0001) %MON dynstat_uvel_sd              =   6.8225500119906E-03
(PID.TID 0000.0001) %MON dynstat_uvel_del2            =   8.2514427436703E-06
(PID.TID 0000.0001) %MON dynstat_vvel_max             =   8.1620574455395E-02
(PID.TID 0000.0001) %MON dynstat_vvel_min             =  -3.1225729830998E-02
(PID.TID 0000.0001) %MON dynstat_vvel_mean            =  -1.2971374653632E-08
(PID.TID 0000.0001) %MON dynstat_vvel_sd              =   1.4010176728462E-02
(PID.TID 0000.0001) %MON dynstat_vvel_del2            =   7.1498290573596E-05
(PID.TID 0000.0001) %MON dynstat_wvel_max             =   1.3703795092079E-08
(PID.TID 0000.0001) %MON dynstat_wvel_min             =  -7.6770211759140E-09
(PID.TID 0000.0001) %MON dynstat_wvel_mean            =   2.0100757562129E-21
(PID.TID 0000.0001) %MON dynstat_wvel_sd              =   5.2002207609952E-09
(PID.TID 0000.0001) %MON dynstat_wvel_del2            =   1.6769407883454E-12
(PID.TID 0000.0001) %MON dynstat_theta_max            =   2.0000000000000E+01
(PID.TID 0000.0001) %MON dynstat_theta_min            =   2.0000000000000E+01
(PID.TID 0000.0001) %MON dynstat_theta_mean           =   2.0000000000000E+01
(PID.TID 0000.0001) %MON dynstat_theta_sd             =   0.0000000000000E+00
(PID.TID 0000.0001) %MON dynstat_theta_del2           =   0.0000000000000E+00
(PID.TID 0000.0001) %MON dynstat_salt_max             =   3.0000000000000E+01
(PID.TID 0000.0001) %MON dynstat_salt_min             =   3.0000000000000E+01
(PID.TID 0000.0001) %MON dynstat_salt_mean            =   3.0000000000000E+01
(PID.TID 0000.0001) %MON dynstat_salt_sd              =   0.0000000000000E+00
(PID.TID 0000.0001) %MON dynstat_salt_del2            =   0.0000000000000E+00
(PID.TID 0000.0001) %MON trAdv_CFL_u_max              =   1.7935239821247E-03
(PID.TID 0000.0001) %MON trAdv_CFL_v_max              =   4.8970672426542E-03
(PID.TID 0000.0001) %MON trAdv_CFL_w_max              =   3.2894147394109E-09
(PID.TID 0000.0001) %MON advcfl_uvel_max              =   1.7935504142642E-03
(PID.TID 0000.0001) %MON advcfl_vvel_max              =   4.8972344673237E-03
(PID.TID 0000.0001) %MON advcfl_wvel_max              =   6.5778216441977E-09
(PID.TID 0000.0001) %MON advcfl_W_hf_max              =   0.0000000000000E+00
(PID.TID 0000.0001) %MON pe_b_mean                    =   2.5094464049830E-07
(PID.TID 0000.0001) %MON ke_max                       =   3.3256560943753E-03
(PID.TID 0000.0001) %MON ke_mean                      =   1.1939251832514E-04
(PID.TID 0000.0001) %MON ke_vol                       =   7.2000000000000E+15
(PID.TID 0000.0001) %MON vort_r_min                   =  -1.4853371524629E-06
(PID.TID 0000.0001) %MON vort_r_max                   =   2.2609068828442E-06
(PID.TID 0000.0001) %MON vort_a_mean                  =   1.0600000000000E-04
(PID.TID 0000.0001) %MON vort_a_sd                    =   3.5354013277194E-06
(PID.TID 0000.0001) %MON vort_p_mean                  =   1.1130000000000E-04
(PID.TID 0000.0001) %MON vort_p_sd                    =   4.1152034670722E-05
(PID.TID 0000.0001) %MON surfExpan_theta_mean         =   4.0215534606129E-20
(PID.TID 0000.0001) %MON surfExpan_salt_mean          =   6.0325394062804E-20
(PID.TID 0000.0001) // =======================================================
(PID.TID 0000.0001) // End MONITOR dynamic field statistics
(PID.TID 0000.0001) // =======================================================
 cg2d: Sum(rhs),rhsMax =  -3.41269057782459E-04  1.35920020296951E-01
 cg2d: Sum(rhs),rhsMax =  -3.41057736932185E-04  1.35926128485798E-01
 cg2d: Sum(rhs),rhsMax =  -3.40845856279692E-04  1.35932246484562E-01
 cg2d: Sum(rhs),rhsMax =  -3.40633414139289E-04  1.35938374279182E-01
 cg2d: Sum(rhs),rhsMax =  -3.40420408775638E-04  1.35944511855575E-01
 cg2d: Sum(rhs),rhsMax =  -3.40206838548266E-04  1.35950659199635E-01
 cg2d: Sum(rhs),rhsMax =  -3.39992701600439E-04  1.35956816297235E-01
 cg2d: Sum(rhs),rhsMax =  -3.39777996373395E-04  1.35962983134225E-01
 cg2d: Sum(rhs),rhsMax =  -3.39562721098930E-04  1.35969159696435E-01
 cg2d: Sum(rhs),rhsMax =  -3.39346874056559E-04  1.35975345969672E-01
 cg2d: Sum(rhs),rhsMax =  -3.39130453421676E-04  1.35981541939720E-01
 cg2d: Sum(rhs),rhsMax =  -3.38913457581206E-04  1.35987747592342E-01
 cg2d: Sum(rhs),rhsMax =  -3.38695884697727E-04  1.35993962913279E-01
 cg2d: Sum(rhs),rhsMax =  -3.38477733118831E-04  1.36000187888250E-01
 cg2d: Sum(rhs),rhsMax =  -3.38259000923392E-04  1.36006422502954E-01
 cg2d: Sum(rhs),rhsMax =  -3.38039686513260E-04  1.36012666743065E-01
 cg2d: Sum(rhs),rhsMax =  -3.37819787990008E-04  1.36018920594238E-01
 cg2d: Sum(rhs),rhsMax =  -3.37599303711801E-04  1.36025184042105E-01
 cg2d: Sum(rhs),rhsMax =  -3.37378231717892E-04  1.36031457072277E-01
 cg2d: Sum(rhs),rhsMax =  -3.37156570340764E-04  1.36037739670342E-01
 cg2d: Sum(rhs),rhsMax =  -3.36934317675743E-04  1.36044031821870E-01
 cg2d: Sum(rhs),rhsMax =  -3.36711472032746E-04  1.36050333512405E-01
 cg2d: Sum(rhs),rhsMax =  -3.36488031459545E-04  1.36056644727473E-01
 cg2d: Sum(rhs),rhsMax =  -3.36263994272889E-04  1.36062965452575E-01
 cg2d: Sum(rhs),rhsMax =  -3.36039358571316E-04  1.36069295673196E-01
 cg2d: Sum(rhs),rhsMax =  -3.35814122509554E-04  1.36075635374794E-01
 cg2d: Sum(rhs),rhsMax =  -3.35588284326514E-04  1.36081984542810E-01
 cg2d: Sum(rhs),rhsMax =  -3.35361842091575E-04  1.36088343162660E-01
 cg2d: Sum(rhs),rhsMax =  -3.35134793941880E-04  1.36094711219742E-01
 cg2d: Sum(rhs),rhsMax =  -3.34907138060082E-04  1.36101088699430E-01
 cg2d: Sum(rhs),rhsMax =  -3.34678872650072E-04  1.36107475587081E-01
 cg2d: Sum(rhs),rhsMax =  -3.34449995693184E-04  1.36113871868025E-01
 cg2d: Sum(rhs),rhsMax =  -3.34220505401209E-04  1.36120277527576E-01
 cg2d: Sum(rhs),rhsMax =  -3.33990399898152E-04  1.36126692551024E-01
 cg2d: Sum(rhs),rhsMax =  -3.33759677174190E-04  1.36133116923639E-01
 cg2d: Sum(rhs),rhsMax =  -3.33528335533998E-04  1.36139550630671E-01
 cg2d: Sum(rhs),rhsMax =  -3.33296372914239E-04  1.36145993657348E-01
 cg2d: Sum(rhs),rhsMax =  -3.33063787473717E-04  1.36152445988877E-01
 cg2d: Sum(rhs),rhsMax =  -3.32830577322214E-04  1.36158907610443E-01
 cg2d: Sum(rhs),rhsMax =  -3.32596740478451E-04  1.36165378507214E-01
 cg2d: Sum(rhs),rhsMax =  -3.32362274965776E-04  1.36171858664333E-01
 cg2d: Sum(rhs),rhsMax =  -3.32127178914038E-04  1.36178348066925E-01
 cg2d: Sum(rhs),rhsMax =  -3.31891450366341E-04  1.36184846700094E-01
 cg2d: Sum(rhs),rhsMax =  -3.31655087455866E-04  1.36191354548921E-01
 cg2d: Sum(rhs),rhsMax =  -3.31418088106913E-04  1.36197871598470E-01
 cg2d: Sum(rhs),rhsMax =  -3.31180450362216E-04  1.36204397833780E-01
 cg2d: Sum(rhs),rhsMax =  -3.30942172353448E-04  1.36210933239875E-01
 cg2d: Sum(rhs),rhsMax =  -3.30703251966958E-04  1.36217477801754E-01
 cg2d: Sum(rhs),rhsMax =  -3.30463687266744E-04  1.36224031504397E-01
 cg2d: Sum(rhs),rhsMax =  -3.30223476406279E-04  1.36230594332764E-01
 cg2d: Sum(rhs),rhsMax =  -3.29982617311364E-04  1.36237166271795E-01
 cg2d: Sum(rhs),rhsMax =  -3.29741107903676E-04  1.36243747306409E-01
 cg2d: Sum(rhs),rhsMax =  -3.29498946334336E-04  1.36250337421502E-01
 cg2d: Sum(rhs),rhsMax =  -3.29256130431642E-04  1.36256936601956E-01
 cg2d: Sum(rhs),rhsMax =  -3.29012658318209E-04  1.36263544832628E-01
 cg2d: Sum(rhs),rhsMax =  -3.28768527862429E-04  1.36270162098355E-01
 cg2d: Sum(rhs),rhsMax =  -3.28470360966987E-04  1.36276788336591E-01
 cg2d: Sum(rhs),rhsMax =  -3.28171475363858E-04  1.36283423655059E-01
 cg2d: Sum(rhs),rhsMax =  -3.27871804708767E-04  1.36290067940617E-01
 cg2d: Sum(rhs),rhsMax =  -3.27571393880384E-04  1.36296721195826E-01
 cg2d: Sum(rhs),rhsMax =  -3.27270243493404E-04  1.36303383411084E-01
 cg2d: Sum(rhs),rhsMax =  -3.26968352992936E-04  1.36310054571283E-01
 cg2d: Sum(rhs),rhsMax =  -3.26665716571780E-04  1.36316734660676E-01
 cg2d: Sum(rhs),rhsMax =  -3.26362328498167E-04  1.36323423663265E-01
 cg2d: Sum(rhs),rhsMax =  -3.26058184348542E-04  1.36330121563458E-01
 cg2d: Sum(rhs),rhsMax =  -3.25753281839155E-04  1.36336828345830E-01
 cg2d: Sum(rhs),rhsMax =  -3.25447619534399E-04  1.36343543995042E-01
 cg2d: Sum(rhs),rhsMax =  -3.25141196467109E-04  1.36350268495758E-01
 cg2d: Sum(rhs),rhsMax =  -3.24834010924278E-04  1.36357001832614E-01
 cg2d: Sum(rhs),rhsMax =  -3.24526060788042E-04  1.36363743990200E-01
 cg2d: Sum(rhs),rhsMax =  -3.24217343781306E-04  1.36370494953053E-01
 cg2d: Sum(rhs),rhsMax =  -3.23907857325145E-04  1.36377254705676E-01
(PID.TID 0000.0001)      cg2d_init_res =   8.80875246656639E-04
(PID.TID 0000.0001)      cg2d_iters(min,last) =      -1      75
(PID.TID 0000.0001)      cg2d_last_res =   9.94039174031857E-08
(PID.TID 0000.0001) // =======================================================
(PID.TID 0000.0001) // Begin MONITOR dynamic field statistics
(PID.TID 0000.0001) // =======================================================
(PID.TID 0000.0001) %MON time_tsnumber                =                 12528
(PID.TID 0000.0001) %MON time_secondsf                =   1.5033600000000E+07
(PID.TID 0000.0001) %MON dynstat_eta_max              =   4.2762748499795E-02
(PID.TID 0000.0001) %MON dynstat_eta_min              =  -2.3524819564823E-02
(PID.TID 0000.0001) %MON dynstat_eta_mean             =   2.2066771248250E-07
(PID.TID 0000.0001) %MON dynstat_eta_sd               =   1.6311182408064E-02
(PID.TID 0000.0001) %MON dynstat_eta_del2             =   1.7381405821617E-05
(PID.TID 0000.0001) %MON dynstat_uvel_max             =   2.9931008226618E-02
(PID.TID 0000.0001) %MON dynstat_uvel_min             =  -1.4739098106300E-02
(PID.TID 0000.0001) %MON dynstat_uvel_mean            =  -1.9489635675800E-07
(PID.TID 0000.0001) %MON dynstat_uvel_sd              =   6.9201156435987E-03
(PID.TID 0000.0001) %MON dynstat_uvel_del2            =   8.3115692885007E-06
(PID.TID 0000.0001) %MON dynstat_vvel_max             =   8.1838050532401E-02
(PID.TID 0000.0001) %MON dynstat_vvel_min             =  -3.0939419638291E-02
(PID.TID 0000.0001) %MON dynstat_vvel_mean            =  -1.2175604750409E-08
(PID.TID 0000.0001) %MON dynstat_vvel_sd              =   1.4043999814872E-02
(PID.TID 0000.0001) %MON dynstat_vvel_del2            =   7.1521026509422E-05
(PID.TID 0000.0001) %MON dynstat_wvel_max             =   1.3481192991385E-08
(PID.TID 0000.0001) %MON dynstat_wvel_min             =  -7.7872924692929E-09
(PID.TID 0000.0001) %MON dynstat_wvel_mean            =   2.3368152647486E-22
(PID.TID 0000.0001) %MON dynstat_wvel_sd              =   5.1761304568602E-09
(PID.TID 0000.0001) %MON dynstat_wvel_del2            =   1.6683837812707E-12
(PID.TID 0000.0001) %MON dynstat_theta_max            =   2.0000000000000E+01
(PID.TID 0000.0001) %MON dynstat_theta_min            =   2.0000000000000E+01
(PID.TID 0000.0001) %MON dynstat_theta_mean           =   2.0000000000000E+01
(PID.TID 0000.0001) %MON dynstat_theta_sd             =   0.0000000000000E+00
(PID.TID 0000.0001) %MON dynstat_theta_del2           =   0.0000000000000E+00
(PID.TID 0000.0001) %MON dynstat_salt_max             =   3.0000000000000E+01
(PID.TID 0000.0001) %MON dynstat_salt_min             =   3.0000000000000E+01
(PID.TID 0000.0001) %MON dynstat_salt_mean            =   3.0000000000000E+01
(PID.TID 0000.0001) %MON dynstat_salt_sd              =   0.0000000000000E+00
(PID.TID 0000.0001) %MON dynstat_salt_del2            =   0.0000000000000E+00
(PID.TID 0000.0001) %MON trAdv_CFL_u_max              =   1.7958230094511E-03
(PID.TID 0000.0001) %MON trAdv_CFL_v_max              =   4.9100885736931E-03
(PID.TID 0000.0001) %MON trAdv_CFL_w_max              =   3.2365012093593E-09
(PID.TID 0000.0001) %MON advcfl_uvel_max              =   1.7958604935971E-03
(PID.TID 0000.0001) %MON advcfl_vvel_max              =   4.9102830319441E-03
(PID.TID 0000.0001) %MON advcfl_wvel_max              =   6.4709726358647E-09
(PID.TID 0000.0001) %MON advcfl_W_hf_max              =   0.0000000000000E+00
(PID.TID 0000.0001) %MON pe_b_mean                    =   2.6099963283747E-07
(PID.TID 0000.0001) %MON ke_max                       =   3.3440893395644E-03
(PID.TID 0000.0001) %MON ke_mean                      =   1.2051828291819E-04
(PID.TID 0000.0001) %MON ke_vol                       =   7.2000000000000E+15
(PID.TID 0000.0001) %MON vort_r_min                   =  -1.4839897557105E-06
(PID.TID 0000.0001) %MON vort_r_max                   =   2.2699845062101E-06
(PID.TID 0000.0001) %MON vort_a_mean                  =   1.0600000000000E-04
(PID.TID 0000.0001) %MON vort_a_sd                    =   3.5354357177316E-06
(PID.TID 0000.0001) %MON vort_p_mean                  =   1.1130000000000E-04
(PID.TID 0000.0001) %MON vort_p_sd                    =   4.1152182153173E-05
(PID.TID 0000.0001) %MON surfExpan_theta_mean         =   4.6578444804860E-21
(PID.TID 0000.0001) %MON surfExpan_salt_mean          =   6.9855824828361E-21
(PID.TID 0000.0001) // =======================================================
(PID.TID 0000.0001) // End MONITOR dynamic field statistics
(PID.TID 0000.0001) // =======================================================
 cg2d: Sum(rhs),rhsMax =  -3.23597599285145E-04  1.36384023232550E-01
 cg2d: Sum(rhs),rhsMax =  -3.23286567325802E-04  1.36390800518147E-01
 cg2d: Sum(rhs),rhsMax =  -3.22974759295964E-04  1.36397586546925E-01
 cg2d: Sum(rhs),rhsMax =  -3.22662173275326E-04  1.36404381303335E-01
 cg2d: Sum(rhs),rhsMax =  -3.22348806854949E-04  1.36411184771805E-01
 cg2d: Sum(rhs),rhsMax =  -3.22034658037133E-04  1.36417996936745E-01
 cg2d: Sum(rhs),rhsMax =  -3.21719724592360E-04  1.36424817782545E-01
 cg2d: Sum(rhs),rhsMax =  -3.21404004253209E-04  1.36431647293568E-01
 cg2d: Sum(rhs),rhsMax =  -3.21087494856463E-04  1.36438485454161E-01
 cg2d: Sum(rhs),rhsMax =  -3.20770194265500E-04  1.36445332248649E-01
 cg2d: Sum(rhs),rhsMax =  -3.20452100157383E-04  1.36452187661340E-01
 cg2d: Sum(rhs),rhsMax =  -3.20133210369607E-04  1.36459051676522E-01
 cg2d: Sum(rhs),rhsMax =  -3.19813522747853E-04  1.36465924278468E-01
 cg2d: Sum(rhs),rhsMax =  -3.19493035057418E-04  1.36472805451428E-01
 cg2d: Sum(rhs),rhsMax =  -3.19171745188039E-04  1.36479695179637E-01
 cg2d: Sum(rhs),rhsMax =  -3.18849650849048E-04  1.36486593447307E-01
 cg2d: Sum(rhs),rhsMax =  -3.18526749809346E-04  1.36493500238636E-01
 cg2d: Sum(rhs),rhsMax =  -3.18203039877408E-04  1.36500415537800E-01
 cg2d: Sum(rhs),rhsMax =  -3.17878518834489E-04  1.36507339328956E-01
 cg2d: Sum(rhs),rhsMax =  -3.17553184555665E-04  1.36514271596242E-01
 cg2d: Sum(rhs),rhsMax =  -3.17227034667836E-04  1.36521212323780E-01
 cg2d: Sum(rhs),rhsMax =  -3.16900067186173E-04  1.36528161495671E-01
 cg2d: Sum(rhs),rhsMax =  -3.16572279770831E-04  1.36535119095999E-01
 cg2d: Sum(rhs),rhsMax =  -3.16243670183124E-04  1.36542085108826E-01
 cg2d: Sum(rhs),rhsMax =  -3.15914236225802E-04  1.36549059518201E-01
 cg2d: Sum(rhs),rhsMax =  -3.15583975717322E-04  1.36556042308150E-01
 cg2d: Sum(rhs),rhsMax =  -3.15252886480977E-04  1.36563033462682E-01
 cg2d: Sum(rhs),rhsMax =  -3.14920966166521E-04  1.36570032965790E-01
 cg2d: Sum(rhs),rhsMax =  -3.14588212706228E-04  1.36577040801444E-01
 cg2d: Sum(rhs),rhsMax =  -3.14254623797268E-04  1.36584056953600E-01
 cg2d: Sum(rhs),rhsMax =  -3.13920197318233E-04  1.36591081406195E-01
 cg2d: Sum(rhs),rhsMax =  -3.13584930949907E-04  1.36598114143144E-01
 cg2d: Sum(rhs),rhsMax =  -3.13248822543194E-04  1.36605155148348E-01
 cg2d: Sum(rhs),rhsMax =  -3.12911869890001E-04  1.36612204405690E-01
 cg2d: Sum(rhs),rhsMax =  -3.12574070828706E-04  1.36619261899032E-01
 cg2d: Sum(rhs),rhsMax =  -3.12235423096906E-04  1.36626327612220E-01
 cg2d: Sum(rhs),rhsMax =  -3.11895924462364E-04  1.36633401529081E-01
 cg2d: Sum(rhs),rhsMax =  -3.11555572789688E-04  1.36640483633424E-01
 cg2d: Sum(rhs),rhsMax =  -3.11214365858091E-04  1.36647573909044E-01
 cg2d: Sum(rhs),rhsMax =  -3.10872301415994E-04  1.36654672339710E-01
 cg2d: Sum(rhs),rhsMax =  -3.10529377340239E-04  1.36661778909182E-01
 cg2d: Sum(rhs),rhsMax =  -3.10185591315858E-04  1.36668893601197E-01
 cg2d: Sum(rhs),rhsMax =  -3.09840941290089E-04  1.36676016399474E-01
 cg2d: Sum(rhs),rhsMax =  -3.09495425060257E-04  1.36683147287718E-01
 cg2d: Sum(rhs),rhsMax =  -3.09149040323435E-04  1.36690286249613E-01
 cg2d: Sum(rhs),rhsMax =  -3.08801784974224E-04  1.36697433268826E-01
 cg2d: Sum(rhs),rhsMax =  -3.08453656775332E-04  1.36704588329009E-01
 cg2d: Sum(rhs),rhsMax =  -3.08104653654547E-04  1.36711751413792E-01
 cg2d: Sum(rhs),rhsMax =  -3.07754773341264E-04  1.36718922506792E-01
 cg2d: Sum(rhs),rhsMax =  -3.07404013635557E-04  1.36726101591606E-01
 cg2d: Sum(rhs),rhsMax =  -3.07052372393709E-04  1.36733288651814E-01
 cg2d: Sum(rhs),rhsMax =  -3.06699847543653E-04  1.36740483670979E-01
 cg2d: Sum(rhs),rhsMax =  -3.06346436751814E-04  1.36747686632647E-01
 cg2d: Sum(rhs),rhsMax =  -3.05992137916793E-04  1.36754897520345E-01
 cg2d: Sum(rhs),rhsMax =  -3.05636948989145E-04  1.36762116317585E-01
 cg2d: Sum(rhs),rhsMax =  -3.05280867699466E-04  1.36769343007860E-01
 cg2d: Sum(rhs),rhsMax =  -3.04923891951292E-04  1.36776577574649E-01
 cg2d: Sum(rhs),rhsMax =  -3.04566019589792E-04  1.36783820001409E-01
 cg2d: Sum(rhs),rhsMax =  -3.04207248445279E-04  1.36791070271584E-01
 cg2d: Sum(rhs),rhsMax =  -3.03847576438801E-04  1.36798328368600E-01
 cg2d: Sum(rhs),rhsMax =  -3.03487001361823E-04  1.36805594275864E-01
 cg2d: Sum(rhs),rhsMax =  -3.03125521260290E-04  1.36812867976770E-01
 cg2d: Sum(rhs),rhsMax =  -3.02763133850819E-04  1.36820149454691E-01
 cg2d: Sum(rhs),rhsMax =  -3.02399837108927E-04  1.36827438692987E-01
 cg2d: Sum(rhs),rhsMax =  -3.02035628882760E-04  1.36834735674996E-01
 cg2d: Sum(rhs),rhsMax =  -3.01670507114190E-04  1.36842040384046E-01
 cg2d: Sum(rhs),rhsMax =  -3.01304469669855E-04  1.36849352803443E-01
 cg2d: Sum(rhs),rhsMax =  -3.00937514506380E-04  1.36856672916479E-01
 cg2d: Sum(rhs),rhsMax =  -3.00569639520057E-04  1.36864000706428E-01
 cg2d: Sum(rhs),rhsMax =  -3.00200842566661E-04  1.36871336156548E-01
 cg2d: Sum(rhs),rhsMax =  -2.99831121728177E-04  1.36878679250081E-01
 cg2d: Sum(rhs),rhsMax =  -2.99460474966381E-04  1.36886029970250E-01
(PID.TID 0000.0001)      cg2d_init_res =   8.78745011452019E-04
(PID.TID 0000.0001)      cg2d_iters(min,last) =      -1      75
(PID.TID 0000.0001)      cg2d_last_res =   9.54022163616211E-08
(PID.TID 0000.0001) // =======================================================
(PID.TID 0000.0001) // Begin MONITOR dynamic field statistics
(PID.TID 0000.0001) // =======================================================
(PID.TID 0000.0001) %MON time_tsnumber                =                 12600
(PID.TID 0000.0001) %MON time_secondsf                =   1.5120000000000E+07
(PID.TID 0000.0001) %MON dynstat_eta_max              =   4.2806877538262E-02
(PID.TID 0000.0001) %MON dynstat_eta_min              =  -2.3786988120238E-02
(PID.TID 0000.0001) %MON dynstat_eta_mean             =   2.0471646463257E-07
(PID.TID 0000.0001) %MON dynstat_eta_sd               =   1.6627390699362E-02
(PID.TID 0000.0001) %MON dynstat_eta_del2             =   1.7361626945527E-05
(PID.TID 0000.0001) %MON dynstat_uvel_max             =   2.9982386780070E-02
(PID.TID 0000.0001) %MON dynstat_uvel_min             =  -1.5038750887853E-02
(PID.TID 0000.0001) %MON dynstat_uvel_mean            =  -2.0754110880161E-07
(PID.TID 0000.0001) %MON dynstat_uvel_sd              =   7.0119175060819E-03
(PID.TID 0000.0001) %MON dynstat_uvel_del2            =   8.3678350854453E-06
(PID.TID 0000.0001) %MON dynstat_vvel_max             =   8.2086686833609E-02
(PID.TID 0000.0001) %MON dynstat_vvel_min             =  -3.0654000709091E-02
(PID.TID 0000.0001) %MON dynstat_vvel_mean            =  -1.1289250730863E-08
(PID.TID 0000.0001) %MON dynstat_vvel_sd              =   1.4084556897714E-02
(PID.TID 0000.0001) %MON dynstat_vvel_del2            =   7.1569973885766E-05
(PID.TID 0000.0001) %MON dynstat_wvel_max             =   1.3242380426368E-08
(PID.TID 0000.0001) %MON dynstat_wvel_min             =  -7.8659253785736E-09
(PID.TID 0000.0001) %MON dynstat_wvel_mean            =  -5.6237973290586E-22
(PID.TID 0000.0001) %MON dynstat_wvel_sd              =   5.1478923490968E-09
(PID.TID 0000.0001) %MON dynstat_wvel_del2            =   1.6593375315258E-12
(PID.TID 0000.0001) %MON dynstat_theta_max            =   2.0000000000000E+01
(PID.TID 0000.0001) %MON dynstat_theta_min            =   2.0000000000000E+01
(PID.TID 0000.0001) %MON dynstat_theta_mean           =   2.0000000000000E+01
(PID.TID 0000.0001) %MON dynstat_theta_sd             =   0.0000000000000E+00
(PID.TID 0000.0001) %MON dynstat_theta_del2           =   0.0000000000000E+00
(PID.TID 0000.0001) %MON dynstat_salt_max             =   3.0000000000000E+01
(PID.TID 0000.0001) %MON dynstat_salt_min             =   3.0000000000000E+01
(PID.TID 0000.0001) %MON dynstat_salt_mean            =   3.0000000000000E+01
(PID.TID 0000.0001) %MON dynstat_salt_sd              =   0.0000000000000E+00
(PID.TID 0000.0001) %MON dynstat_salt_del2            =   0.0000000000000E+00
(PID.TID 0000.0001) %MON trAdv_CFL_u_max              =   1.7988953223755E-03
(PID.TID 0000.0001) %MON trAdv_CFL_v_max              =   4.9249820668727E-03
(PID.TID 0000.0001) %MON trAdv_CFL_w_max              =   3.1791924018762E-09
(PID.TID 0000.0001) %MON advcfl_uvel_max              =   1.7989432068042E-03
(PID.TID 0000.0001) %MON advcfl_vvel_max              =   4.9252012100165E-03
(PID.TID 0000.0001) %MON advcfl_wvel_max              =   6.3563426046567E-09
(PID.TID 0000.0001) %MON advcfl_W_hf_max              =   0.0000000000000E+00
(PID.TID 0000.0001) %MON pe_b_mean                    =   2.7121718920243E-07
(PID.TID 0000.0001) %MON ke_max                       =   3.3651210845728E-03
(PID.TID 0000.0001) %MON ke_mean                      =   1.2170801732879E-04
(PID.TID 0000.0001) %MON ke_vol                       =   7.2000000000000E+15
(PID.TID 0000.0001) %MON vort_r_min                   =  -1.4828301397794E-06
(PID.TID 0000.0001) %MON vort_r_max                   =   2.2797238636499E-06
(PID.TID 0000.0001) %MON vort_a_mean                  =   1.0600000000000E-04
(PID.TID 0000.0001) %MON vort_a_sd                    =   3.5354813936204E-06
(PID.TID 0000.0001) %MON vort_p_mean                  =   1.1130000000000E-04
(PID.TID 0000.0001) %MON vort_p_sd                    =   4.1152319704614E-05
(PID.TID 0000.0001) %MON surfExpan_theta_mean         =  -1.1242444012775E-20
(PID.TID 0000.0001) %MON surfExpan_salt_mean          =  -1.6862837052637E-20
(PID.TID 0000.0001) // =======================================================
(PID.TID 0000.0001) // End MONITOR dynamic field statistics
(PID.TID 0000.0001) // =======================================================
 cg2d: Sum(rhs),rhsMax =  -2.99088899985003E-04  1.36893388300267E-01
 cg2d: Sum(rhs),rhsMax =  -2.98716395045613E-04  1.36900754223321E-01
 cg2d: Sum(rhs),rhsMax =  -2.98342957932895E-04  1.36908127722590E-01
 cg2d: Sum(rhs),rhsMax =  -2.97968586757389E-04  1.36915508781232E-01
 cg2d: Sum(rhs),rhsMax =  -2.97593279329218E-04  1.36922897382390E-01
 cg2d: Sum(rhs),rhsMax =  -2.97217033763787E-04  1.36930293509193E-01
 cg2d: Sum(rhs),rhsMax =  -2.96839848008062E-04  1.36937697144750E-01
 cg2d: Sum(rhs),rhsMax =  -2.96461720132043E-04  1.36945108272156E-01
 cg2d: Sum(rhs),rhsMax =  -2.96082648094547E-04  1.36952526874491E-01
 cg2d: Sum(rhs),rhsMax =  -2.95702630038243E-04  1.36959952934815E-01
 cg2d: Sum(rhs),rhsMax =  -2.95321663891433E-04  1.36967386436178E-01
 cg2d: Sum(rhs),rhsMax =  -2.94939747787137E-04  1.36974827361606E-01
 cg2d: Sum(rhs),rhsMax =  -2.94556879740946E-04  1.36982275694118E-01
 cg2d: Sum(rhs),rhsMax =  -2.94173057787180E-04  1.36989731416711E-01
 cg2d: Sum(rhs),rhsMax =  -2.93788280080063E-04  1.36997194512368E-01
 cg2d: Sum(rhs),rhsMax =  -2.93402544632731E-04  1.37004664964056E-01
 cg2d: Sum(rhs),rhsMax =  -2.93015849710192E-04  1.37012142754727E-01
 cg2d: Sum(rhs),rhsMax =  -2.92628193406209E-04  1.37019627867317E-01
 cg2d: Sum(rhs),rhsMax =  -2.92239573756970E-04  1.37027120284746E-01
 cg2d: Sum(rhs),rhsMax =  -2.91849988899927E-04  1.37034619989917E-01
 cg2d: Sum(rhs),rhsMax =  -2.91459437136580E-04  1.37042126965722E-01
 cg2d: Sum(rhs),rhsMax =  -2.91067916410906E-04  1.37049641195031E-01
 cg2d: Sum(rhs),rhsMax =  -2.90675425227792E-04  1.37057162660705E-01
 cg2d: Sum(rhs),rhsMax =  -2.90281961585022E-04  1.37064691345584E-01
 cg2d: Sum(rhs),rhsMax =  -2.89887523675139E-04  1.37072227232497E-01
 cg2d: Sum(rhs),rhsMax =  -2.89409683896557E-04  1.37079770449214E-01
 cg2d: Sum(rhs),rhsMax =  -2.88930772954527E-04  1.37087320708457E-01
 cg2d: Sum(rhs),rhsMax =  -2.88450858404667E-04  1.37094878101923E-01
 cg2d: Sum(rhs),rhsMax =  -2.87969941164925E-04  1.37102442626963E-01
 cg2d: Sum(rhs),rhsMax =  -2.87488026536191E-04  1.37110014269134E-01
 cg2d: Sum(rhs),rhsMax =  -2.87005113813677E-04  1.37117593011527E-01
 cg2d: Sum(rhs),rhsMax =  -2.86521197983030E-04  1.37125178836017E-01
 cg2d: Sum(rhs),rhsMax =  -2.86036273947075E-04  1.37132771724680E-01
 cg2d: Sum(rhs),rhsMax =  -2.85550338366712E-04  1.37140371659986E-01
 cg2d: Sum(rhs),rhsMax =  -2.85063390254945E-04  1.37147978624605E-01
 cg2d: Sum(rhs),rhsMax =  -2.84575429382747E-04  1.37155592601258E-01
 cg2d: Sum(rhs),rhsMax =  -2.84086456093083E-04  1.37163213572659E-01
 cg2d: Sum(rhs),rhsMax =  -2.83596470143963E-04  1.37170841521488E-01
 cg2d: Sum(rhs),rhsMax =  -2.83105470566210E-04  1.37178476430379E-01
 cg2d: Sum(rhs),rhsMax =  -2.82613456591561E-04  1.37186118281929E-01
 cg2d: Sum(rhs),rhsMax =  -2.82120426907783E-04  1.37193767058700E-01
 cg2d: Sum(rhs),rhsMax =  -2.81626380731444E-04  1.37201422743244E-01
 cg2d: Sum(rhs),rhsMax =  -2.81131317206877E-04  1.37209085318106E-01
 cg2d: Sum(rhs),rhsMax =  -2.80635235694353E-04  1.37216754765831E-01
 cg2d: Sum(rhs),rhsMax =  -2.80138135667989E-04  1.37224431068951E-01
 cg2d: Sum(rhs),rhsMax =  -2.79640016434365E-04  1.37232114209991E-01
 cg2d: Sum(rhs),rhsMax =  -2.79140877436865E-04  1.37239804171457E-01
 cg2d: Sum(rhs),rhsMax =  -2.78640718113077E-04  1.37247500935836E-01
 cg2d: Sum(rhs),rhsMax =  -2.78139537900292E-04  1.37255204485601E-01
 cg2d: Sum(rhs),rhsMax =  -2.77637336176207E-04  1.37262914803205E-01
 cg2d: Sum(rhs),rhsMax =  -2.77134112596458E-04  1.37270631871091E-01
 cg2d: Sum(rhs),rhsMax =  -2.76629866719467E-04  1.37278355671685E-01
 cg2d: Sum(rhs),rhsMax =  -2.76124598063176E-04  1.37286086187398E-01
 cg2d: Sum(rhs),rhsMax =  -2.75618306362811E-04  1.37293823400633E-01
 cg2d: Sum(rhs),rhsMax =  -2.75110991033017E-04  1.37301567293776E-01
 cg2d: Sum(rhs),rhsMax =  -2.74602652186575E-04  1.37309317849199E-01
 cg2d: Sum(rhs),rhsMax =  -2.74093289276293E-04  1.37317075049263E-01
 cg2d: Sum(rhs),rhsMax =  -2.73582902203234E-04  1.37324838876310E-01
 cg2d: Sum(rhs),rhsMax =  -2.73071490774874E-04  1.37332609312674E-01
 cg2d: Sum(rhs),rhsMax =  -2.72559054858226E-04  1.37340386340670E-01
 cg2d: Sum(rhs),rhsMax =  -2.72045594318301E-04  1.37348169942602E-01
 cg2d: Sum(rhs),rhsMax =  -2.71531109106056E-04  1.37355960100759E-01
 cg2d: Sum(rhs),rhsMax =  -2.71015599309428E-04  1.37363756797416E-01
 cg2d: Sum(rhs),rhsMax =  -2.70499064792287E-04  1.37371560014835E-01
 cg2d: Sum(rhs),rhsMax =  -2.69981505799828E-04  1.37379369735265E-01
 cg2d: Sum(rhs),rhsMax =  -2.69462922351731E-04  1.37387185940941E-01
 cg2d: Sum(rhs),rhsMax =  -2.68943314578846E-04  1.37395008614083E-01
 cg2d: Sum(rhs),rhsMax =  -2.68422682868355E-04  1.37402837736900E-01
 cg2d: Sum(rhs),rhsMax =  -2.67901027244974E-04  1.37410673291588E-01
 cg2d: Sum(rhs),rhsMax =  -2.67378348116627E-04  1.37418515260326E-01
 cg2d: Sum(rhs),rhsMax =  -2.66854645791254E-04  1.37426363625283E-01
 cg2d: Sum(rhs),rhsMax =  -2.66329920722091E-04  1.37434218368614E-01
(PID.TID 0000.0001)      cg2d_init_res =   8.75855289469782E-04
(PID.TID 0000.0001)      cg2d_iters(min,last) =      -1      74
(PID.TID 0000.0001)      cg2d_last_res =   9.40941455427766E-08
(PID.TID 0000.0001) // =======================================================
(PID.TID 0000.0001) // Begin MONITOR dynamic field statistics
(PID.TID 0000.0001) // =======================================================
(PID.TID 0000.0001) %MON time_tsnumber                =                 12672
(PID.TID 0000.0001) %MON time_secondsf                =   1.5206400000000E+07
(PID.TID 0000.0001) %MON dynstat_eta_max              =   4.2915953562818E-02
(PID.TID 0000.0001) %MON dynstat_eta_min              =  -2.4013297392684E-02
(PID.TID 0000.0001) %MON dynstat_eta_mean             =   1.8266339158374E-07
(PID.TID 0000.0001) %MON dynstat_eta_sd               =   1.6938810789531E-02
(PID.TID 0000.0001) %MON dynstat_eta_del2             =   1.7346080638595E-05
(PID.TID 0000.0001) %MON dynstat_uvel_max             =   3.0045793834075E-02
(PID.TID 0000.0001) %MON dynstat_uvel_min             =  -1.5330440102398E-02
(PID.TID 0000.0001) %MON dynstat_uvel_mean            =  -2.1747069462746E-07
(PID.TID 0000.0001) %MON dynstat_uvel_sd              =   7.0969939372279E-03
(PID.TID 0000.0001) %MON dynstat_uvel_del2            =   8.4192571084600E-06
(PID.TID 0000.0001) %MON dynstat_vvel_max             =   8.2363247876444E-02
(PID.TID 0000.0001) %MON dynstat_vvel_min             =  -3.0372340964243E-02
(PID.TID 0000.0001) %MON dynstat_vvel_mean            =  -1.0324877483504E-08
(PID.TID 0000.0001) %MON dynstat_vvel_sd              =   1.4131325543752E-02
(PID.TID 0000.0001) %MON dynstat_vvel_del2            =   7.1644199608659E-05
(PID.TID 0000.0001) %MON dynstat_wvel_max             =   1.2946568656778E-08
(PID.TID 0000.0001) %MON dynstat_wvel_min             =  -7.9264713308658E-09
(PID.TID 0000.0001) %MON dynstat_wvel_mean            =   7.2216405694942E-23
(PID.TID 0000.0001) %MON dynstat_wvel_sd              =   5.1153926242798E-09
(PID.TID 0000.0001) %MON dynstat_wvel_del2            =   1.6460467752451E-12
(PID.TID 0000.0001) %MON dynstat_theta_max            =   2.0000000000000E+01
(PID.TID 0000.0001) %MON dynstat_theta_min            =   2.0000000000000E+01
(PID.TID 0000.0001) %MON dynstat_theta_mean           =   2.0000000000000E+01
(PID.TID 0000.0001) %MON dynstat_theta_sd             =   0.0000000000000E+00
(PID.TID 0000.0001) %MON dynstat_theta_del2           =   0.0000000000000E+00
(PID.TID 0000.0001) %MON dynstat_salt_max             =   3.0000000000000E+01
(PID.TID 0000.0001) %MON dynstat_salt_min             =   3.0000000000000E+01
(PID.TID 0000.0001) %MON dynstat_salt_mean            =   3.0000000000000E+01
(PID.TID 0000.0001) %MON dynstat_salt_sd              =   0.0000000000000E+00
(PID.TID 0000.0001) %MON dynstat_salt_del2            =   0.0000000000000E+00
(PID.TID 0000.0001) %MON trAdv_CFL_u_max              =   1.8026901048682E-03
(PID.TID 0000.0001) %MON trAdv_CFL_v_max              =   4.9415538780824E-03
(PID.TID 0000.0001) %MON trAdv_CFL_w_max              =   3.1082420316157E-09
(PID.TID 0000.0001) %MON advcfl_uvel_max              =   1.8027476300445E-03
(PID.TID 0000.0001) %MON advcfl_vvel_max              =   4.9417948725867E-03
(PID.TID 0000.0001) %MON advcfl_wvel_max              =   6.2143529552533E-09
(PID.TID 0000.0001) %MON advcfl_W_hf_max              =   0.0000000000000E+00
(PID.TID 0000.0001) %MON pe_b_mean                    =   2.8147176808796E-07
(PID.TID 0000.0001) %MON ke_max                       =   3.3885102050547E-03
(PID.TID 0000.0001) %MON ke_mean                      =   1.2294699493617E-04
(PID.TID 0000.0001) %MON ke_vol                       =   7.2000000000000E+15
(PID.TID 0000.0001) %MON vort_r_min                   =  -1.4821055248676E-06
(PID.TID 0000.0001) %MON vort_r_max                   =   2.2900071625168E-06
(PID.TID 0000.0001) %MON vort_a_mean                  =   1.0600000000000E-04
(PID.TID 0000.0001) %MON vort_a_sd                    =   3.5355376968217E-06
(PID.TID 0000.0001) %MON vort_p_mean                  =   1.1130000000000E-04
(PID.TID 0000.0001) %MON vort_p_sd                    =   4.1152446322562E-05
(PID.TID 0000.0001) %MON surfExpan_theta_mean         =   1.4443162715199E-21
(PID.TID 0000.0001) %MON surfExpan_salt_mean          =   2.1654875423691E-21
(PID.TID 0000.0001) // =======================================================
(PID.TID 0000.0001) // End MONITOR dynamic field statistics
(PID.TID 0000.0001) // =======================================================
 cg2d: Sum(rhs),rhsMax =  -2.65804173349802E-04  1.37442079472460E-01
 cg2d: Sum(rhs),rhsMax =  -2.65277404107090E-04  1.37449946918949E-01
 cg2d: Sum(rhs),rhsMax =  -2.64749613642637E-04  1.37457820690197E-01
 cg2d: Sum(rhs),rhsMax =  -2.64220802451285E-04  1.37465700768305E-01
 cg2d: Sum(rhs),rhsMax =  -2.63690971199811E-04  1.37473587135363E-01
 cg2d: Sum(rhs),rhsMax =  -2.63160120650382E-04  1.37481479773446E-01
 cg2d: Sum(rhs),rhsMax =  -2.62628251465388E-04  1.37489378664617E-01
 cg2d: Sum(rhs),rhsMax =  -2.62095364500736E-04  1.37497283790927E-01
 cg2d: Sum(rhs),rhsMax =  -2.61561460635638E-04  1.37505195134413E-01
 cg2d: Sum(rhs),rhsMax =  -2.61026540760064E-04  1.37513112677100E-01
 cg2d: Sum(rhs),rhsMax =  -2.60490605916724E-04  1.37521036400998E-01
 cg2d: Sum(rhs),rhsMax =  -2.59953656946896E-04  1.37528966288108E-01
 cg2d: Sum(rhs),rhsMax =  -2.59415695102746E-04  1.37536902320416E-01
 cg2d: Sum(rhs),rhsMax =  -2.58876721531133E-04  1.37544844479895E-01
 cg2d: Sum(rhs),rhsMax =  -2.58336737372425E-04  1.37552792748507E-01
 cg2d: Sum(rhs),rhsMax =  -2.57795743958261E-04  1.37560747108199E-01
 cg2d: Sum(rhs),rhsMax =  -2.57253742607778E-04  1.37568707540909E-01
 cg2d: Sum(rhs),rhsMax =  -2.56710734747680E-04  1.37576674028560E-01
 cg2d: Sum(rhs),rhsMax =  -2.56166721706846E-04  1.37584646553062E-01
 cg2d: Sum(rhs),rhsMax =  -2.55621705176968E-04  1.37592625096317E-01
 cg2d: Sum(rhs),rhsMax =  -2.55075686623924E-04  1.37600609640209E-01
 cg2d: Sum(rhs),rhsMax =  -2.54528667793639E-04  1.37608600166613E-01
 cg2d: Sum(rhs),rhsMax =  -2.53980650244429E-04  1.37616596657391E-01
 cg2d: Sum(rhs),rhsMax =  -2.53431635955630E-04  1.37624599094394E-01
 cg2d: Sum(rhs),rhsMax =  -2.52881626624665E-04  1.37632607459459E-01
 cg2d: Sum(rhs),rhsMax =  -2.52330624358225E-04  1.37640621734412E-01
 cg2d: Sum(rhs),rhsMax =  -2.51778630944790E-04  1.37648641901067E-01
 cg2d: Sum(rhs),rhsMax =  -2.51225648671698E-04  1.37656667941226E-01
 cg2d: Sum(rhs),rhsMax =  -2.50671679465317E-04  1.37664699836678E-01
 cg2d: Sum(rhs),rhsMax =  -2.50116725754516E-04  1.37672737569202E-01
 cg2d: Sum(rhs),rhsMax =  -2.49560789680967E-04  1.37680781120564E-01
 cg2d: Sum(rhs),rhsMax =  -2.49003873665419E-04  1.37688830472518E-01
 cg2d: Sum(rhs),rhsMax =  -2.48445980111638E-04  1.37696885606806E-01
 cg2d: Sum(rhs),rhsMax =  -2.47887111666125E-04  1.37704946505161E-01
 cg2d: Sum(rhs),rhsMax =  -2.47327270835945E-04  1.37713013149300E-01
 cg2d: Sum(rhs),rhsMax =  -2.46766460356024E-04  1.37721085520931E-01
 cg2d: Sum(rhs),rhsMax =  -2.46204682928317E-04  1.37729163601752E-01
 cg2d: Sum(rhs),rhsMax =  -2.45641941454662E-04  1.37737247373446E-01
 cg2d: Sum(rhs),rhsMax =  -2.45078238832259E-04  1.37745336817686E-01
 cg2d: Sum(rhs),rhsMax =  -2.44513578092329E-04  1.37753431916134E-01
 cg2d: Sum(rhs),rhsMax =  -2.43947962356625E-04  1.37761532650441E-01
 cg2d: Sum(rhs),rhsMax =  -2.43381394689033E-04  1.37769639002245E-01
 cg2d: Sum(rhs),rhsMax =  -2.42813878601832E-04  1.37777750953174E-01
 cg2d: Sum(rhs),rhsMax =  -2.42245417346151E-04  1.37785868484845E-01
 cg2d: Sum(rhs),rhsMax =  -2.41676014347155E-04  1.37793991578863E-01
 cg2d: Sum(rhs),rhsMax =  -2.41001706931048E-04  1.37802120660723E-01
 cg2d: Sum(rhs),rhsMax =  -2.40326685794667E-04  1.37810254825131E-01
 cg2d: Sum(rhs),rhsMax =  -2.39650940583902E-04  1.37818394499267E-01
 cg2d: Sum(rhs),rhsMax =  -2.38974487320481E-04  1.37826539660079E-01
 cg2d: Sum(rhs),rhsMax =  -2.38297332776169E-04  1.37834690292401E-01
 cg2d: Sum(rhs),rhsMax =  -2.37619483155086E-04  1.37842846377534E-01
 cg2d: Sum(rhs),rhsMax =  -2.36940943565581E-04  1.37851007896251E-01
 cg2d: Sum(rhs),rhsMax =  -2.36261719069813E-04  1.37859174829612E-01
 cg2d: Sum(rhs),rhsMax =  -2.35581815236190E-04  1.37867347159091E-01
 cg2d: Sum(rhs),rhsMax =  -2.34901238065182E-04  1.37875524866273E-01
 cg2d: Sum(rhs),rhsMax =  -2.34219993985037E-04  1.37883707932710E-01
 cg2d: Sum(rhs),rhsMax =  -2.33538089524924E-04  1.37891896339908E-01
 cg2d: Sum(rhs),rhsMax =  -2.32855531548237E-04  1.37900090069338E-01
 cg2d: Sum(rhs),rhsMax =  -2.32172326426562E-04  1.37908289102446E-01
 cg2d: Sum(rhs),rhsMax =  -2.31488481081990E-04  1.37916493420664E-01
 cg2d: Sum(rhs),rhsMax =  -2.30804002118622E-04  1.37924703005411E-01
 cg2d: Sum(rhs),rhsMax =  -2.30118896433072E-04  1.37932917838096E-01
 cg2d: Sum(rhs),rhsMax =  -2.29433171050228E-04  1.37941137900129E-01
 cg2d: Sum(rhs),rhsMax =  -2.28746833203891E-04  1.37949363172909E-01
 cg2d: Sum(rhs),rhsMax =  -2.28059890219457E-04  1.37957593637833E-01
 cg2d: Sum(rhs),rhsMax =  -2.27372349358931E-04  1.37965829276289E-01
 cg2d: Sum(rhs),rhsMax =  -2.26684218174206E-04  1.37974070069651E-01
 cg2d: Sum(rhs),rhsMax =  -2.25995504403397E-04  1.37982315999282E-01
 cg2d: Sum(rhs),rhsMax =  -2.25306215629969E-04  1.37990567046535E-01
 cg2d: Sum(rhs),rhsMax =  -2.24616359889875E-04  1.37998823192748E-01
 cg2d: Sum(rhs),rhsMax =  -2.23925945021260E-04  1.38007084419251E-01
 cg2d: Sum(rhs),rhsMax =  -2.23234979343344E-04  1.38015350707361E-01
(PID.TID 0000.0001)      cg2d_init_res =   8.72038740841574E-04
(PID.TID 0000.0001)      cg2d_iters(min,last) =      -1      73
(PID.TID 0000.0001)      cg2d_last_res =   9.32739398465557E-08
(PID.TID 0000.0001) // =======================================================
(PID.TID 0000.0001) // Begin MONITOR dynamic field statistics
(PID.TID 0000.0001) // =======================================================
(PID.TID 0000.0001) %MON time_tsnumber                =                 12744
(PID.TID 0000.0001) %MON time_secondsf                =   1.5292800000000E+07
(PID.TID 0000.0001) %MON dynstat_eta_max              =   4.3087515899357E-02
(PID.TID 0000.0001) %MON dynstat_eta_min              =  -2.4201839096411E-02
(PID.TID 0000.0001) %MON dynstat_eta_mean             =   1.5358127962734E-07
(PID.TID 0000.0001) %MON dynstat_eta_sd               =   1.7242000795688E-02
(PID.TID 0000.0001) %MON dynstat_eta_del2             =   1.7334868695670E-05
(PID.TID 0000.0001) %MON dynstat_uvel_max             =   3.0120258152644E-02
(PID.TID 0000.0001) %MON dynstat_uvel_min             =  -1.5618582431408E-02
(PID.TID 0000.0001) %MON dynstat_uvel_mean            =  -2.2459824938123E-07
(PID.TID 0000.0001) %MON dynstat_uvel_sd              =   7.1745087285648E-03
(PID.TID 0000.0001) %MON dynstat_uvel_del2            =   8.4650061370687E-06
(PID.TID 0000.0001) %MON dynstat_vvel_max             =   8.2664179848605E-02
(PID.TID 0000.0001) %MON dynstat_vvel_min             =  -3.0097235814737E-02
(PID.TID 0000.0001) %MON dynstat_vvel_mean            =  -9.2958293622075E-09
(PID.TID 0000.0001) %MON dynstat_vvel_sd              =   1.4183709642167E-02
(PID.TID 0000.0001) %MON dynstat_vvel_del2            =   7.1742467631365E-05
(PID.TID 0000.0001) %MON dynstat_wvel_max             =   1.2601624993185E-08
(PID.TID 0000.0001) %MON dynstat_wvel_min             =  -7.9647245348315E-09
(PID.TID 0000.0001) %MON dynstat_wvel_mean            =   5.8426571235436E-23
(PID.TID 0000.0001) %MON dynstat_wvel_sd              =   5.0787004505713E-09
(PID.TID 0000.0001) %MON dynstat_wvel_del2            =   1.6458468026109E-12
(PID.TID 0000.0001) %MON dynstat_theta_max            =   2.0000000000000E+01
(PID.TID 0000.0001) %MON dynstat_theta_min            =   2.0000000000000E+01
(PID.TID 0000.0001) %MON dynstat_theta_mean           =   2.0000000000000E+01
(PID.TID 0000.0001) %MON dynstat_theta_sd             =   0.0000000000000E+00
(PID.TID 0000.0001) %MON dynstat_theta_del2           =   0.0000000000000E+00
(PID.TID 0000.0001) %MON dynstat_salt_max             =   3.0000000000000E+01
(PID.TID 0000.0001) %MON dynstat_salt_min             =   3.0000000000000E+01
(PID.TID 0000.0001) %MON dynstat_salt_mean            =   3.0000000000000E+01
(PID.TID 0000.0001) %MON dynstat_salt_sd              =   0.0000000000000E+00
(PID.TID 0000.0001) %MON dynstat_salt_del2            =   0.0000000000000E+00
(PID.TID 0000.0001) %MON trAdv_CFL_u_max              =   1.8071491792563E-03
(PID.TID 0000.0001) %MON trAdv_CFL_v_max              =   4.9595910242369E-03
(PID.TID 0000.0001) %MON trAdv_CFL_w_max              =   3.0254561791371E-09
(PID.TID 0000.0001) %MON advcfl_uvel_max              =   1.8072154891587E-03
(PID.TID 0000.0001) %MON advcfl_vvel_max              =   4.9598507909163E-03
(PID.TID 0000.0001) %MON advcfl_wvel_max              =   6.0487799967290E-09
(PID.TID 0000.0001) %MON advcfl_W_hf_max              =   0.0000000000000E+00
(PID.TID 0000.0001) %MON pe_b_mean                    =   2.9163814622433E-07
(PID.TID 0000.0001) %MON ke_max                       =   3.4139880889009E-03
(PID.TID 0000.0001) %MON ke_mean                      =   1.2422017075705E-04
(PID.TID 0000.0001) %MON ke_vol                       =   7.2000000000000E+15
(PID.TID 0000.0001) %MON vort_r_min                   =  -1.4820058248660E-06
(PID.TID 0000.0001) %MON vort_r_max                   =   2.3007106852221E-06
(PID.TID 0000.0001) %MON vort_a_mean                  =   1.0600000000000E-04
(PID.TID 0000.0001) %MON vort_a_sd                    =   3.5356038594674E-06
(PID.TID 0000.0001) %MON vort_p_mean                  =   1.1130000000000E-04
(PID.TID 0000.0001) %MON vort_p_sd                    =   4.1152561140839E-05
(PID.TID 0000.0001) %MON surfExpan_theta_mean         =   1.1659216801895E-21
(PID.TID 0000.0001) %MON surfExpan_salt_mean          =   1.7488825202842E-21
(PID.TID 0000.0001) // =======================================================
(PID.TID 0000.0001) // End MONITOR dynamic field statistics
(PID.TID 0000.0001) // =======================================================
 cg2d: Sum(rhs),rhsMax =  -2.22543470933039E-04  1.38023622038391E-01
 cg2d: Sum(rhs),rhsMax =  -2.21851428325078E-04  1.38031898393639E-01
 cg2d: Sum(rhs),rhsMax =  -2.21158859857107E-04  1.38040179754397E-01
 cg2d: Sum(rhs),rhsMax =  -2.20465774361340E-04  1.38048466101949E-01
 cg2d: Sum(rhs),rhsMax =  -2.19772180484950E-04  1.38056757417567E-01
 cg2d: Sum(rhs),rhsMax =  -2.19078087238086E-04  1.38065053682512E-01
 cg2d: Sum(rhs),rhsMax =  -2.18383503704438E-04  1.38073354878039E-01
 cg2d: Sum(rhs),rhsMax =  -2.17688438899236E-04  1.38081660985390E-01
 cg2d: Sum(rhs),rhsMax =  -2.16992902272927E-04  1.38089971985800E-01
 cg2d: Sum(rhs),rhsMax =  -2.16296903305354E-04  1.38098287860492E-01
 cg2d: Sum(rhs),rhsMax =  -2.15501782762079E-04  1.38106608290713E-01
 cg2d: Sum(rhs),rhsMax =  -2.14706509019882E-04  1.38114933863953E-01
 cg2d: Sum(rhs),rhsMax =  -2.13911098071336E-04  1.38123264257779E-01
 cg2d: Sum(rhs),rhsMax =  -2.13115549272863E-04  1.38131599445210E-01
 cg2d: Sum(rhs),rhsMax =  -2.12319869613064E-04  1.38139939413515E-01
 cg2d: Sum(rhs),rhsMax =  -2.11524070741036E-04  1.38148284143906E-01
 cg2d: Sum(rhs),rhsMax =  -2.10728167022220E-04  1.38156633616794E-01
 cg2d: Sum(rhs),rhsMax =  -2.09932172721978E-04  1.38164987813123E-01
 cg2d: Sum(rhs),rhsMax =  -2.09136101367267E-04  1.38173346714160E-01
 cg2d: Sum(rhs),rhsMax =  -2.08339965535837E-04  1.38181710301199E-01
 cg2d: Sum(rhs),rhsMax =  -2.07543777551711E-04  1.38190078555438E-01
 cg2d: Sum(rhs),rhsMax =  -2.06747549704808E-04  1.38198451457983E-01
 cg2d: Sum(rhs),rhsMax =  -2.05951294925040E-04  1.38206828989908E-01
 cg2d: Sum(rhs),rhsMax =  -2.05155026193280E-04  1.38215211132280E-01
 cg2d: Sum(rhs),rhsMax =  -2.04358757026824E-04  1.38223597866170E-01
 cg2d: Sum(rhs),rhsMax =  -2.03562501078818E-04  1.38231989172654E-01
 cg2d: Sum(rhs),rhsMax =  -2.02766272138522E-04  1.38240385032805E-01
 cg2d: Sum(rhs),rhsMax =  -2.01970084137510E-04  1.38248785427686E-01
 cg2d: Sum(rhs),rhsMax =  -2.01173951025238E-04  1.38257190338353E-01
 cg2d: Sum(rhs),rhsMax =  -2.00377887080114E-04  1.38265599745855E-01
 cg2d: Sum(rhs),rhsMax =  -1.99581906497135E-04  1.38274013631229E-01
 cg2d: Sum(rhs),rhsMax =  -1.98786023935207E-04  1.38282431975507E-01
 cg2d: Sum(rhs),rhsMax =  -1.97990254169455E-04  1.38290854759708E-01
 cg2d: Sum(rhs),rhsMax =  -1.97194612063353E-04  1.38299281964846E-01
 cg2d: Sum(rhs),rhsMax =  -1.96399112732293E-04  1.38307713571925E-01
 cg2d: Sum(rhs),rhsMax =  -1.95603771312771E-04  1.38316149561937E-01
 cg2d: Sum(rhs),rhsMax =  -1.94808603514445E-04  1.38324589915870E-01
 cg2d: Sum(rhs),rhsMax =  -1.94013624739990E-04  1.38333034614700E-01
 cg2d: Sum(rhs),rhsMax =  -1.93218850867236E-04  1.38341483639399E-01
 cg2d: Sum(rhs),rhsMax =  -1.92424298006641E-04  1.38349936970928E-01
 cg2d: Sum(rhs),rhsMax =  -1.91629982188671E-04  1.38358394590244E-01
 cg2d: Sum(rhs),rhsMax =  -1.90835919947017E-04  1.38366856478293E-01
 cg2d: Sum(rhs),rhsMax =  -1.90042127682617E-04  1.38375322616016E-01
 cg2d: Sum(rhs),rhsMax =  -1.89248622280497E-04  1.38383792984342E-01
 cg2d: Sum(rhs),rhsMax =  -1.88343177686110E-04  1.38392267360352E-01
 cg2d: Sum(rhs),rhsMax =  -1.87438643054076E-04  1.38400746137591E-01
 cg2d: Sum(rhs),rhsMax =  -1.86534945909910E-04  1.38409229094337E-01
 cg2d: Sum(rhs),rhsMax =  -1.85632112524888E-04  1.38417716196724E-01
 cg2d: Sum(rhs),rhsMax =  -1.84730152555630E-04  1.38426207435058E-01
 cg2d: Sum(rhs),rhsMax =  -1.83829084919831E-04  1.38434702789514E-01
 cg2d: Sum(rhs),rhsMax =  -1.82928933038683E-04  1.38443202240334E-01
 cg2d: Sum(rhs),rhsMax =  -1.82029720606911E-04  1.38451705768387E-01
 cg2d: Sum(rhs),rhsMax =  -1.81131469704035E-04  1.38460213354885E-01
 cg2d: Sum(rhs),rhsMax =  -1.80234200486713E-04  1.38468724980962E-01
 cg2d: Sum(rhs),rhsMax =  -1.79337932122937E-04  1.38477240627555E-01
 cg2d: Sum(rhs),rhsMax =  -1.78442683653572E-04  1.38485760275454E-01
 cg2d: Sum(rhs),rhsMax =  -1.77548475113513E-04  1.38494283905406E-01
 cg2d: Sum(rhs),rhsMax =  -1.76655326945603E-04  1.38502811498171E-01
 cg2d: Sum(rhs),rhsMax =  -1.75763260303496E-04  1.38511343034548E-01
 cg2d: Sum(rhs),rhsMax =  -1.74872296483071E-04  1.38519878495357E-01
 cg2d: Sum(rhs),rhsMax =  -1.73982456833552E-04  1.38528417861419E-01
 cg2d: Sum(rhs),rhsMax =  -1.73093762945746E-04  1.38536961113543E-01
 cg2d: Sum(rhs),rhsMax =  -1.72206236231601E-04  1.38545508232525E-01
 cg2d: Sum(rhs),rhsMax =  -1.71319898537124E-04  1.38554059199148E-01
 cg2d: Sum(rhs),rhsMax =  -1.70434771851311E-04  1.38562613994192E-01
 cg2d: Sum(rhs),rhsMax =  -1.69550878270414E-04  1.38571172598421E-01
 cg2d: Sum(rhs),rhsMax =  -1.68668240454734E-04  1.38579734992604E-01
 cg2d: Sum(rhs),rhsMax =  -1.67786880755770E-04  1.38588301157498E-01
 cg2d: Sum(rhs),rhsMax =  -1.66906822180054E-04  1.38596871073855E-01
 cg2d: Sum(rhs),rhsMax =  -1.66028087689432E-04  1.38605444722419E-01
 cg2d: Sum(rhs),rhsMax =  -1.65150700448182E-04  1.38614022083925E-01
 cg2d: Sum(rhs),rhsMax =  -1.64274684008112E-04  1.38622603139107E-01
(PID.TID 0000.0001)      cg2d_init_res =   8.67168317877189E-04
(PID.TID 0000.0001)      cg2d_iters(min,last) =      -1      71
(PID.TID 0000.0001)      cg2d_last_res =   9.08488814216553E-08
(PID.TID 0000.0001) // =======================================================
(PID.TID 0000.0001) // Begin MONITOR dynamic field statistics
(PID.TID 0000.0001) // =======================================================
(PID.TID 0000.0001) %MON time_tsnumber                =                 12816
(PID.TID 0000.0001) %MON time_secondsf                =   1.5379200000000E+07
(PID.TID 0000.0001) %MON dynstat_eta_max              =   4.3318362157467E-02
(PID.TID 0000.0001) %MON dynstat_eta_min              =  -2.4351196783085E-02
(PID.TID 0000.0001) %MON dynstat_eta_mean             =   1.1326172328642E-07
(PID.TID 0000.0001) %MON dynstat_eta_sd               =   1.7533802828985E-02
(PID.TID 0000.0001) %MON dynstat_eta_del2             =   1.7328047664011E-05
(PID.TID 0000.0001) %MON dynstat_uvel_max             =   3.0204699753505E-02
(PID.TID 0000.0001) %MON dynstat_uvel_min             =  -1.5883595835788E-02
(PID.TID 0000.0001) %MON dynstat_uvel_mean            =  -2.2887293935616E-07
(PID.TID 0000.0001) %MON dynstat_uvel_sd              =   7.2437546537960E-03
(PID.TID 0000.0001) %MON dynstat_uvel_del2            =   8.5044190900947E-06
(PID.TID 0000.0001) %MON dynstat_vvel_max             =   8.2985659489077E-02
(PID.TID 0000.0001) %MON dynstat_vvel_min             =  -2.9831375694175E-02
(PID.TID 0000.0001) %MON dynstat_vvel_mean            =  -8.2159907757685E-09
(PID.TID 0000.0001) %MON dynstat_vvel_sd              =   1.4241046698117E-02
(PID.TID 0000.0001) %MON dynstat_vvel_del2            =   7.1863260314830E-05
(PID.TID 0000.0001) %MON dynstat_wvel_max             =   1.2230618387603E-08
(PID.TID 0000.0001) %MON dynstat_wvel_min             =  -8.0260381152038E-09
(PID.TID 0000.0001) %MON dynstat_wvel_mean            =   7.7054210123606E-22
(PID.TID 0000.0001) %MON dynstat_wvel_sd              =   5.0380664231300E-09
(PID.TID 0000.0001) %MON dynstat_wvel_del2            =   1.6403926281224E-12
(PID.TID 0000.0001) %MON dynstat_theta_max            =   2.0000000000000E+01
(PID.TID 0000.0001) %MON dynstat_theta_min            =   2.0000000000000E+01
(PID.TID 0000.0001) %MON dynstat_theta_mean           =   2.0000000000000E+01
(PID.TID 0000.0001) %MON dynstat_theta_sd             =   0.0000000000000E+00
(PID.TID 0000.0001) %MON dynstat_theta_del2           =   0.0000000000000E+00
(PID.TID 0000.0001) %MON dynstat_salt_max             =   3.0000000000000E+01
(PID.TID 0000.0001) %MON dynstat_salt_min             =   3.0000000000000E+01
(PID.TID 0000.0001) %MON dynstat_salt_mean            =   3.0000000000000E+01
(PID.TID 0000.0001) %MON dynstat_salt_sd              =   0.0000000000000E+00
(PID.TID 0000.0001) %MON dynstat_salt_del2            =   0.0000000000000E+00
(PID.TID 0000.0001) %MON trAdv_CFL_u_max              =   1.8122078311279E-03
(PID.TID 0000.0001) %MON trAdv_CFL_v_max              =   4.9788643133979E-03
(PID.TID 0000.0001) %MON trAdv_CFL_w_max              =   2.9364484078287E-09
(PID.TID 0000.0001) %MON advcfl_uvel_max              =   1.8122819852103E-03
(PID.TID 0000.0001) %MON advcfl_vvel_max              =   4.9791395693446E-03
(PID.TID 0000.0001) %MON advcfl_wvel_max              =   5.8706968260492E-09
(PID.TID 0000.0001) %MON advcfl_W_hf_max              =   0.0000000000000E+00
(PID.TID 0000.0001) %MON pe_b_mean                    =   3.0159299106703E-07
(PID.TID 0000.0001) %MON ke_max                       =   3.4412612871501E-03
(PID.TID 0000.0001) %MON ke_mean                      =   1.2551236802577E-04
(PID.TID 0000.0001) %MON ke_vol                       =   7.2000000000000E+15
(PID.TID 0000.0001) %MON vort_r_min                   =  -1.4821420094081E-06
(PID.TID 0000.0001) %MON vort_r_max                   =   2.3117064220907E-06
(PID.TID 0000.0001) %MON vort_a_mean                  =   1.0600000000000E-04
(PID.TID 0000.0001) %MON vort_a_sd                    =   3.5356790130675E-06
(PID.TID 0000.0001) %MON vort_p_mean                  =   1.1130000000000E-04
(PID.TID 0000.0001) %MON vort_p_sd                    =   4.1152663435878E-05
(PID.TID 0000.0001) %MON surfExpan_theta_mean         =   1.5412145633794E-20
(PID.TID 0000.0001) %MON surfExpan_salt_mean          =   2.3119797434548E-20
(PID.TID 0000.0001) // =======================================================
(PID.TID 0000.0001) // End MONITOR dynamic field statistics
(PID.TID 0000.0001) // =======================================================
 cg2d: Sum(rhs),rhsMax =  -1.63400061707371E-04  1.38631187868687E-01
 cg2d: Sum(rhs),rhsMax =  -1.62526857644754E-04  1.38639776253383E-01
 cg2d: Sum(rhs),rhsMax =  -1.61655095661558E-04  1.38648368273908E-01
 cg2d: Sum(rhs),rhsMax =  -1.60784799995811E-04  1.38656963910967E-01
 cg2d: Sum(rhs),rhsMax =  -1.59915995083999E-04  1.38665563145260E-01
 cg2d: Sum(rhs),rhsMax =  -1.59048705471044E-04  1.38674165957482E-01
 cg2d: Sum(rhs),rhsMax =  -1.58182956070584E-04  1.38682772328320E-01
 cg2d: Sum(rhs),rhsMax =  -1.57318771830397E-04  1.38691382238454E-01
 cg2d: Sum(rhs),rhsMax =  -1.56456177858260E-04  1.38699995668559E-01
 cg2d: Sum(rhs),rhsMax =  -1.55595199644756E-04  1.38708612599304E-01
 cg2d: Sum(rhs),rhsMax =  -1.54735862835193E-04  1.38717233011352E-01
 cg2d: Sum(rhs),rhsMax =  -1.53878193174384E-04  1.38725856885360E-01
 cg2d: Sum(rhs),rhsMax =  -1.53022216584859E-04  1.38734484201978E-01
 cg2d: Sum(rhs),rhsMax =  -1.52167959536298E-04  1.38743114941853E-01
 cg2d: Sum(rhs),rhsMax =  -1.51315448102228E-04  1.38751749085624E-01
 cg2d: Sum(rhs),rhsMax =  -1.50464709059890E-04  1.38760386613925E-01
 cg2d: Sum(rhs),rhsMax =  -1.49615769199197E-04  1.38769027507384E-01
 cg2d: Sum(rhs),rhsMax =  -1.48768655408861E-04  1.38777671746624E-01
 cg2d: Sum(rhs),rhsMax =  -1.47923394919607E-04  1.38786319312261E-01
 cg2d: Sum(rhs),rhsMax =  -1.46999230817427E-04  1.38794970026465E-01
 cg2d: Sum(rhs),rhsMax =  -1.46077412694541E-04  1.38803624191229E-01
 cg2d: Sum(rhs),rhsMax =  -1.45158046110377E-04  1.38812281627193E-01
 cg2d: Sum(rhs),rhsMax =  -1.44241127382146E-04  1.38820942308562E-01
 cg2d: Sum(rhs),rhsMax =  -1.43326678518366E-04  1.38829606219499E-01
 cg2d: Sum(rhs),rhsMax =  -1.42414727819401E-04  1.38838273339925E-01
 cg2d: Sum(rhs),rhsMax =  -1.41505306722011E-04  1.38846943650021E-01
 cg2d: Sum(rhs),rhsMax =  -1.40598447255004E-04  1.38855617130639E-01
 cg2d: Sum(rhs),rhsMax =  -1.39694180706342E-04  1.38864293762809E-01
 cg2d: Sum(rhs),rhsMax =  -1.38792537189599E-04  1.38872973527400E-01
 cg2d: Sum(rhs),rhsMax =  -1.37893546437571E-04  1.38881656405032E-01
 cg2d: Sum(rhs),rhsMax =  -1.36997238198593E-04  1.38890342376170E-01
 cg2d: Sum(rhs),rhsMax =  -1.36103642604675E-04  1.38899031421247E-01
 cg2d: Sum(rhs),rhsMax =  -1.35212790279182E-04  1.38907723520732E-01
 cg2d: Sum(rhs),rhsMax =  -1.34324712215246E-04  1.38916418655149E-01
 cg2d: Sum(rhs),rhsMax =  -1.33439439567254E-04  1.38925116805050E-01
 cg2d: Sum(rhs),rhsMax =  -1.32557003566758E-04  1.38933817950994E-01
 cg2d: Sum(rhs),rhsMax =  -1.31677435515977E-04  1.38942522073521E-01
 cg2d: Sum(rhs),rhsMax =  -1.30800766917421E-04  1.38951229153159E-01
 cg2d: Sum(rhs),rhsMax =  -1.29927029620871E-04  1.38959939170419E-01
 cg2d: Sum(rhs),rhsMax =  -1.29056255153617E-04  1.38968652105805E-01
 cg2d: Sum(rhs),rhsMax =  -1.28188475586426E-04  1.38977367939817E-01
 cg2d: Sum(rhs),rhsMax =  -1.27323723165202E-04  1.38986086652958E-01
 cg2d: Sum(rhs),rhsMax =  -1.26462030116753E-04  1.38994808225725E-01
 cg2d: Sum(rhs),rhsMax =  -1.25603428870206E-04  1.39003532638614E-01
 cg2d: Sum(rhs),rhsMax =  -1.24747952124114E-04  1.39012259872116E-01
 cg2d: Sum(rhs),rhsMax =  -1.23895632624684E-04  1.39020989906712E-01
 cg2d: Sum(rhs),rhsMax =  -1.23046503267552E-04  1.39029722722886E-01
 cg2d: Sum(rhs),rhsMax =  -1.22200597090016E-04  1.39038458301112E-01
 cg2d: Sum(rhs),rhsMax =  -1.21357947302041E-04  1.39047196621862E-01
 cg2d: Sum(rhs),rhsMax =  -1.20518587323187E-04  1.39055937665603E-01
 cg2d: Sum(rhs),rhsMax =  -1.19682550529385E-04  1.39064681412800E-01
 cg2d: Sum(rhs),rhsMax =  -1.18849870684142E-04  1.39073427843912E-01
 cg2d: Sum(rhs),rhsMax =  -1.18020581548147E-04  1.39082176939397E-01
 cg2d: Sum(rhs),rhsMax =  -1.17194717096678E-04  1.39090928679706E-01
 cg2d: Sum(rhs),rhsMax =  -1.16372311437548E-04  1.39099683045286E-01
 cg2d: Sum(rhs),rhsMax =  -1.15553398842105E-04  1.39108440016584E-01
 cg2d: Sum(rhs),rhsMax =  -1.14738013517249E-04  1.39117199574039E-01
 cg2d: Sum(rhs),rhsMax =  -1.13926190022791E-04  1.39125961698088E-01
 cg2d: Sum(rhs),rhsMax =  -1.13117963005656E-04  1.39134726369166E-01
 cg2d: Sum(rhs),rhsMax =  -1.12313367193581E-04  1.39143493567702E-01
 cg2d: Sum(rhs),rhsMax =  -1.11512437622201E-04  1.39152263274122E-01
 cg2d: Sum(rhs),rhsMax =  -1.10715209226872E-04  1.39161035468848E-01
 cg2d: Sum(rhs),rhsMax =  -1.09921717391830E-04  1.39169810132301E-01
 cg2d: Sum(rhs),rhsMax =  -1.09131997225588E-04  1.39178587244897E-01
 cg2d: Sum(rhs),rhsMax =  -1.08346084344719E-04  1.39187366787049E-01
 cg2d: Sum(rhs),rhsMax =  -1.07564014199523E-04  1.39196148739164E-01
 cg2d: Sum(rhs),rhsMax =  -1.06785822639120E-04  1.39204933081649E-01
 cg2d: Sum(rhs),rhsMax =  -1.05840388499901E-04  1.39213719859811E-01
 cg2d: Sum(rhs),rhsMax =  -1.04900564501286E-04  1.39222508924490E-01
 cg2d: Sum(rhs),rhsMax =  -1.03966492445711E-04  1.39231300322249E-01
 cg2d: Sum(rhs),rhsMax =  -1.03038237281530E-04  1.39240094040308E-01
 cg2d: Sum(rhs),rhsMax =  -1.02115835601781E-04  1.39248890052008E-01
(PID.TID 0000.0001)      cg2d_init_res =   8.61166520335351E-04
(PID.TID 0000.0001)      cg2d_iters(min,last) =      -1      68
(PID.TID 0000.0001)      cg2d_last_res =   9.73951180291605E-08
(PID.TID 0000.0001) // =======================================================
(PID.TID 0000.0001) // Begin MONITOR dynamic field statistics
(PID.TID 0000.0001) // =======================================================
(PID.TID 0000.0001) %MON time_tsnumber                =                 12888
(PID.TID 0000.0001) %MON time_secondsf                =   1.5465600000000E+07
(PID.TID 0000.0001) %MON dynstat_eta_max              =   4.3604614611471E-02
(PID.TID 0000.0001) %MON dynstat_eta_min              =  -2.4460440369983E-02
(PID.TID 0000.0001) %MON dynstat_eta_mean             =   7.0463911072008E-08
(PID.TID 0000.0001) %MON dynstat_eta_sd               =   1.7811346770361E-02
(PID.TID 0000.0001) %MON dynstat_eta_del2             =   1.7325627781308E-05
(PID.TID 0000.0001) %MON dynstat_uvel_max             =   3.0297945241046E-02
(PID.TID 0000.0001) %MON dynstat_uvel_min             =  -1.6128455198895E-02
(PID.TID 0000.0001) %MON dynstat_uvel_mean            =  -2.3028254170524E-07
(PID.TID 0000.0001) %MON dynstat_uvel_sd              =   7.3041550937960E-03
(PID.TID 0000.0001) %MON dynstat_uvel_del2            =   8.5370054789385E-06
(PID.TID 0000.0001) %MON dynstat_vvel_max             =   8.3323645978096E-02
(PID.TID 0000.0001) %MON dynstat_vvel_min             =  -2.9577315950138E-02
(PID.TID 0000.0001) %MON dynstat_vvel_mean            =  -7.0996439958259E-09
(PID.TID 0000.0001) %MON dynstat_vvel_sd              =   1.4302616539050E-02
(PID.TID 0000.0001) %MON dynstat_vvel_del2            =   7.2004804162399E-05
(PID.TID 0000.0001) %MON dynstat_wvel_max             =   1.1832878728915E-08
(PID.TID 0000.0001) %MON dynstat_wvel_min             =  -8.1533808528911E-09
(PID.TID 0000.0001) %MON dynstat_wvel_mean            =  -8.8261512271654E-22
(PID.TID 0000.0001) %MON dynstat_wvel_sd              =   4.9939148458134E-09
(PID.TID 0000.0001) %MON dynstat_wvel_del2            =   1.6486219915172E-12
(PID.TID 0000.0001) %MON dynstat_theta_max            =   2.0000000000000E+01
(PID.TID 0000.0001) %MON dynstat_theta_min            =   2.0000000000000E+01
(PID.TID 0000.0001) %MON dynstat_theta_mean           =   2.0000000000000E+01
(PID.TID 0000.0001) %MON dynstat_theta_sd             =   0.0000000000000E+00
(PID.TID 0000.0001) %MON dynstat_theta_del2           =   0.0000000000000E+00
(PID.TID 0000.0001) %MON dynstat_salt_max             =   3.0000000000000E+01
(PID.TID 0000.0001) %MON dynstat_salt_min             =   3.0000000000000E+01
(PID.TID 0000.0001) %MON dynstat_salt_mean            =   3.0000000000000E+01
(PID.TID 0000.0001) %MON dynstat_salt_sd              =   0.0000000000000E+00
(PID.TID 0000.0001) %MON dynstat_salt_del2            =   0.0000000000000E+00
(PID.TID 0000.0001) %MON trAdv_CFL_u_max              =   1.8177957281101E-03
(PID.TID 0000.0001) %MON trAdv_CFL_v_max              =   4.9991314554372E-03
(PID.TID 0000.0001) %MON trAdv_CFL_w_max              =   2.8410234730100E-09
(PID.TID 0000.0001) %MON advcfl_uvel_max              =   1.8178767144628E-03
(PID.TID 0000.0001) %MON advcfl_vvel_max              =   4.9994187586857E-03
(PID.TID 0000.0001) %MON advcfl_wvel_max              =   5.6797817898791E-09
(PID.TID 0000.0001) %MON advcfl_W_hf_max              =   0.0000000000000E+00
(PID.TID 0000.0001) %MON pe_b_mean                    =   3.1121643637723E-07
(PID.TID 0000.0001) %MON ke_max                       =   3.4700145478502E-03
(PID.TID 0000.0001) %MON ke_mean                      =   1.2680846476229E-04
(PID.TID 0000.0001) %MON ke_vol                       =   7.2000000000000E+15
(PID.TID 0000.0001) %MON vort_r_min                   =  -1.4825175129370E-06
(PID.TID 0000.0001) %MON vort_r_max                   =   2.3228637427646E-06
(PID.TID 0000.0001) %MON vort_a_mean                  =   1.0600000000000E-04
(PID.TID 0000.0001) %MON vort_a_sd                    =   3.5357621985128E-06
(PID.TID 0000.0001) %MON vort_p_mean                  =   1.1130000000000E-04
(PID.TID 0000.0001) %MON vort_p_sd                    =   4.1152752631603E-05
(PID.TID 0000.0001) %MON surfExpan_theta_mean         =  -1.7651144743367E-20
(PID.TID 0000.0001) %MON surfExpan_salt_mean          =  -2.6477664505364E-20
(PID.TID 0000.0001) // =======================================================
(PID.TID 0000.0001) // End MONITOR dynamic field statistics
(PID.TID 0000.0001) // =======================================================
 cg2d: Sum(rhs),rhsMax =  -1.01199311723615E-04  1.39257688333350E-01
 cg2d: Sum(rhs),rhsMax =  -1.00288688954678E-04  1.39266488864201E-01
 cg2d: Sum(rhs),rhsMax =  -9.93839944580617E-05  1.39275291626414E-01
 cg2d: Sum(rhs),rhsMax =  -9.84852593718579E-05  1.39284096602084E-01
 cg2d: Sum(rhs),rhsMax =  -9.75925164007829E-05  1.39292903772591E-01
 cg2d: Sum(rhs),rhsMax =  -9.67057986244130E-05  1.39301713118475E-01
 cg2d: Sum(rhs),rhsMax =  -9.58251391974044E-05  1.39310524619787E-01
 cg2d: Sum(rhs),rhsMax =  -9.49505703374499E-05  1.39319338256494E-01
 cg2d: Sum(rhs),rhsMax =  -9.40821239100971E-05  1.39328154008714E-01
 cg2d: Sum(rhs),rhsMax =  -9.32198314707944E-05  1.39336971856757E-01
 cg2d: Sum(rhs),rhsMax =  -9.21187577299651E-05  1.39345791991989E-01
 cg2d: Sum(rhs),rhsMax =  -9.10269029988867E-05  1.39354613902620E-01
 cg2d: Sum(rhs),rhsMax =  -8.99444851142827E-05  1.39363437910843E-01
 cg2d: Sum(rhs),rhsMax =  -8.88716457899336E-05  1.39372263967983E-01
 cg2d: Sum(rhs),rhsMax =  -8.78084176298864E-05  1.39381092025444E-01
 cg2d: Sum(rhs),rhsMax =  -8.67547814354455E-05  1.39389922054063E-01
 cg2d: Sum(rhs),rhsMax =  -8.57107090911141E-05  1.39398754034021E-01
 cg2d: Sum(rhs),rhsMax =  -8.46761833493302E-05  1.39407587948795E-01
 cg2d: Sum(rhs),rhsMax =  -8.36511997191801E-05  1.39416423782082E-01
 cg2d: Sum(rhs),rhsMax =  -8.26357605313221E-05  1.39425261516109E-01
 cg2d: Sum(rhs),rhsMax =  -8.16298707180894E-05  1.39434101131501E-01
 cg2d: Sum(rhs),rhsMax =  -8.06335340848554E-05  1.39442942607960E-01
 cg2d: Sum(rhs),rhsMax =  -7.96467524206944E-05  1.39451785925048E-01
 cg2d: Sum(rhs),rhsMax =  -7.86695255378328E-05  1.39460631062623E-01
 cg2d: Sum(rhs),rhsMax =  -7.77018518789514E-05  1.39469478000926E-01
 cg2d: Sum(rhs),rhsMax =  -7.67437294463920E-05  1.39478326720439E-01
 cg2d: Sum(rhs),rhsMax =  -7.57951563960550E-05  1.39487177201701E-01
 cg2d: Sum(rhs),rhsMax =  -7.48561308753547E-05  1.39496029425178E-01
 cg2d: Sum(rhs),rhsMax =  -7.39266515308772E-05  1.39504883371237E-01
 cg2d: Sum(rhs),rhsMax =  -7.30067168292258E-05  1.39513739020173E-01
 cg2d: Sum(rhs),rhsMax =  -7.20963249655864E-05  1.39522596352253E-01
 cg2d: Sum(rhs),rhsMax =  -7.11954740116958E-05  1.39531455347761E-01
 cg2d: Sum(rhs),rhsMax =  -7.03041617473536E-05  1.39540315987001E-01
 cg2d: Sum(rhs),rhsMax =  -6.94223862497522E-05  1.39549178250302E-01
 cg2d: Sum(rhs),rhsMax =  -6.85501450881573E-05  1.39558042117999E-01
 cg2d: Sum(rhs),rhsMax =  -6.76874363840351E-05  1.39566907570423E-01
 cg2d: Sum(rhs),rhsMax =  -6.68342581214652E-05  1.39575774587902E-01
 cg2d: Sum(rhs),rhsMax =  -6.59906084189256E-05  1.39584643150752E-01
 cg2d: Sum(rhs),rhsMax =  -6.51564854165327E-05  1.39593513239288E-01
 cg2d: Sum(rhs),rhsMax =  -6.43318875925081E-05  1.39602384833821E-01
 cg2d: Sum(rhs),rhsMax =  -6.35168133572518E-05  1.39611257914665E-01
 cg2d: Sum(rhs),rhsMax =  -6.27112615983203E-05  1.39620132462129E-01
 cg2d: Sum(rhs),rhsMax =  -6.19152313412388E-05  1.39629008456525E-01
 cg2d: Sum(rhs),rhsMax =  -6.11287217037702E-05  1.39637885878164E-01
 cg2d: Sum(rhs),rhsMax =  -6.03517322872111E-05  1.39646764707357E-01
 cg2d: Sum(rhs),rhsMax =  -5.95842629697594E-05  1.39655644924413E-01
 cg2d: Sum(rhs),rhsMax =  -5.88263138725561E-05  1.39664526509639E-01
 cg2d: Sum(rhs),rhsMax =  -5.80778854837550E-05  1.39673409443345E-01
 cg2d: Sum(rhs),rhsMax =  -5.73389788796090E-05  1.39682293705836E-01
 cg2d: Sum(rhs),rhsMax =  -5.66095951490524E-05  1.39691179277419E-01
 cg2d: Sum(rhs),rhsMax =  -5.58897360319758E-05  1.39700066138399E-01
 cg2d: Sum(rhs),rhsMax =  -5.51794036085240E-05  1.39708954269082E-01
 cg2d: Sum(rhs),rhsMax =  -5.44786004707132E-05  1.39717843649770E-01
 cg2d: Sum(rhs),rhsMax =  -5.37873295024084E-05  1.39726734260767E-01
 cg2d: Sum(rhs),rhsMax =  -5.31055941252094E-05  1.39735626082377E-01
 cg2d: Sum(rhs),rhsMax =  -5.24333982249879E-05  1.39744519094902E-01
 cg2d: Sum(rhs),rhsMax =  -5.17707460236643E-05  1.39753413278645E-01
 cg2d: Sum(rhs),rhsMax =  -5.11176423329540E-05  1.39762308613907E-01
 cg2d: Sum(rhs),rhsMax =  -5.04740924653002E-05  1.39771205080991E-01
 cg2d: Sum(rhs),rhsMax =  -4.98401020995413E-05  1.39780102660196E-01
 cg2d: Sum(rhs),rhsMax =  -4.92156774145793E-05  1.39789001331826E-01
 cg2d: Sum(rhs),rhsMax =  -4.86008249243651E-05  1.39797901076182E-01
 cg2d: Sum(rhs),rhsMax =  -4.79955517152233E-05  1.39806801873563E-01
 cg2d: Sum(rhs),rhsMax =  -4.73998652675278E-05  1.39815703704270E-01
 cg2d: Sum(rhs),rhsMax =  -4.68137735354004E-05  1.39824606548605E-01
 cg2d: Sum(rhs),rhsMax =  -4.62372848508870E-05  1.39833510386868E-01
 cg2d: Sum(rhs),rhsMax =  -4.56704079402643E-05  1.39842415199362E-01
 cg2d: Sum(rhs),rhsMax =  -4.51131519093248E-05  1.39851320966386E-01
 cg2d: Sum(rhs),rhsMax =  -4.45655262930819E-05  1.39860227668241E-01
 cg2d: Sum(rhs),rhsMax =  -4.40275409317589E-05  1.39869135285229E-01
 cg2d: Sum(rhs),rhsMax =  -4.34992061207002E-05  1.39878043797652E-01
 cg2d: Sum(rhs),rhsMax =  -4.29805322632740E-05  1.39886953185813E-01
(PID.TID 0000.0001)      cg2d_init_res =   8.53997916960548E-04
(PID.TID 0000.0001)      cg2d_iters(min,last) =      -1      65
(PID.TID 0000.0001)      cg2d_last_res =   8.24968265621627E-08
(PID.TID 0000.0001) // =======================================================
(PID.TID 0000.0001) // Begin MONITOR dynamic field statistics
(PID.TID 0000.0001) // =======================================================
(PID.TID 0000.0001) %MON time_tsnumber                =                 12960
(PID.TID 0000.0001) %MON time_secondsf                =   1.5552000000000E+07
(PID.TID 0000.0001) %MON dynstat_eta_max              =   4.3941761041489E-02
(PID.TID 0000.0001) %MON dynstat_eta_min              =  -2.4529147270422E-02
(PID.TID 0000.0001) %MON dynstat_eta_mean             =   2.9707957095726E-08
(PID.TID 0000.0001) %MON dynstat_eta_sd               =   1.8072050563930E-02
(PID.TID 0000.0001) %MON dynstat_eta_del2             =   1.7327572444012E-05
(PID.TID 0000.0001) %MON dynstat_uvel_max             =   3.0398743711684E-02
(PID.TID 0000.0001) %MON dynstat_uvel_min             =  -1.6371995807674E-02
(PID.TID 0000.0001) %MON dynstat_uvel_mean            =  -2.2884822090638E-07
(PID.TID 0000.0001) %MON dynstat_uvel_sd              =   7.3552638670640E-03
(PID.TID 0000.0001) %MON dynstat_uvel_del2            =   8.5624485303792E-06
(PID.TID 0000.0001) %MON dynstat_vvel_max             =   8.3673935017684E-02
(PID.TID 0000.0001) %MON dynstat_vvel_min             =  -2.9337448526106E-02
(PID.TID 0000.0001) %MON dynstat_vvel_mean            =  -5.9614104459661E-09
(PID.TID 0000.0001) %MON dynstat_vvel_sd              =   1.4367651247519E-02
(PID.TID 0000.0001) %MON dynstat_vvel_del2            =   7.2165099313455E-05
(PID.TID 0000.0001) %MON dynstat_wvel_max             =   1.1436638219539E-08
(PID.TID 0000.0001) %MON dynstat_wvel_min             =  -8.4156326111406E-09
(PID.TID 0000.0001) %MON dynstat_wvel_mean            =  -1.7313139879762E-21
(PID.TID 0000.0001) %MON dynstat_wvel_sd              =   4.9468262574651E-09
(PID.TID 0000.0001) %MON dynstat_wvel_del2            =   1.6493637997649E-12
(PID.TID 0000.0001) %MON dynstat_theta_max            =   2.0000000000000E+01
(PID.TID 0000.0001) %MON dynstat_theta_min            =   2.0000000000000E+01
(PID.TID 0000.0001) %MON dynstat_theta_mean           =   2.0000000000000E+01
(PID.TID 0000.0001) %MON dynstat_theta_sd             =   0.0000000000000E+00
(PID.TID 0000.0001) %MON dynstat_theta_del2           =   0.0000000000000E+00
(PID.TID 0000.0001) %MON dynstat_salt_max             =   3.0000000000000E+01
(PID.TID 0000.0001) %MON dynstat_salt_min             =   3.0000000000000E+01
(PID.TID 0000.0001) %MON dynstat_salt_mean            =   3.0000000000000E+01
(PID.TID 0000.0001) %MON dynstat_salt_sd              =   0.0000000000000E+00
(PID.TID 0000.0001) %MON dynstat_salt_del2            =   0.0000000000000E+00
(PID.TID 0000.0001) %MON trAdv_CFL_u_max              =   1.8238378740302E-03
(PID.TID 0000.0001) %MON trAdv_CFL_v_max              =   5.0201403066609E-03
(PID.TID 0000.0001) %MON trAdv_CFL_w_max              =   2.7463285097434E-09
(PID.TID 0000.0001) %MON advcfl_uvel_max              =   1.8239246227010E-03
(PID.TID 0000.0001) %MON advcfl_vvel_max              =   5.0204361010610E-03
(PID.TID 0000.0001) %MON advcfl_wvel_max              =   5.4895863453785E-09
(PID.TID 0000.0001) %MON advcfl_W_hf_max              =   0.0000000000000E+00
(PID.TID 0000.0001) %MON pe_b_mean                    =   3.2039363036599E-07
(PID.TID 0000.0001) %MON ke_max                       =   3.4999141912675E-03
(PID.TID 0000.0001) %MON ke_mean                      =   1.2809357691363E-04
(PID.TID 0000.0001) %MON ke_vol                       =   7.2000000000000E+15
(PID.TID 0000.0001) %MON vort_r_min                   =  -1.4831318522067E-06
(PID.TID 0000.0001) %MON vort_r_max                   =   2.3340511129887E-06
(PID.TID 0000.0001) %MON vort_a_mean                  =   1.0600000000000E-04
(PID.TID 0000.0001) %MON vort_a_sd                    =   3.5358523773416E-06
(PID.TID 0000.0001) %MON vort_p_mean                  =   1.1130000000000E-04
(PID.TID 0000.0001) %MON vort_p_sd                    =   4.1152828302221E-05
(PID.TID 0000.0001) %MON surfExpan_theta_mean         =  -3.4626484395833E-20
(PID.TID 0000.0001) %MON surfExpan_salt_mean          =  -5.1939095000206E-20
(PID.TID 0000.0001) // =======================================================
(PID.TID 0000.0001) // End MONITOR dynamic field statistics
(PID.TID 0000.0001) // =======================================================
 cg2d: Sum(rhs),rhsMax =  -4.24715304401056E-05  1.39895863430014E-01
 cg2d: Sum(rhs),rhsMax =  -4.19722115372455E-05  1.39904774510557E-01
 cg2d: Sum(rhs),rhsMax =  -4.14825870928082E-05  1.39913686407745E-01
 cg2d: Sum(rhs),rhsMax =  -4.10026686934392E-05  1.39922599101884E-01
 cg2d: Sum(rhs),rhsMax =  -4.05324682096466E-05  1.39931512573276E-01
 cg2d: Sum(rhs),rhsMax =  -4.00719977718357E-05  1.39940426802228E-01
 cg2d: Sum(rhs),rhsMax =  -3.96212696013786E-05  1.39949341769045E-01
 cg2d: Sum(rhs),rhsMax =  -3.91802960482491E-05  1.39958257454035E-01
 cg2d: Sum(rhs),rhsMax =  -3.87490896906597E-05  1.39967173837502E-01
 cg2d: Sum(rhs),rhsMax =  -3.83276631554103E-05  1.39976090899757E-01
 cg2d: Sum(rhs),rhsMax =  -3.79160292481662E-05  1.39985008621109E-01
 cg2d: Sum(rhs),rhsMax =  -3.75142008021846E-05  1.39993926981867E-01
 cg2d: Sum(rhs),rhsMax =  -3.71221905992184E-05  1.40002845962342E-01
 cg2d: Sum(rhs),rhsMax =  -3.67400115336971E-05  1.40011765542848E-01
 cg2d: Sum(rhs),rhsMax =  -3.63676765771604E-05  1.40020685703695E-01
 cg2d: Sum(rhs),rhsMax =  -3.60051984916549E-05  1.40029606425199E-01
 cg2d: Sum(rhs),rhsMax =  -3.56525901548024E-05  1.40038527687675E-01
 cg2d: Sum(rhs),rhsMax =  -3.53098643231476E-05  1.40047449471440E-01
 cg2d: Sum(rhs),rhsMax =  -3.49770336362043E-05  1.40056371756814E-01
 cg2d: Sum(rhs),rhsMax =  -3.46541108009061E-05  1.40065294524113E-01
 cg2d: Sum(rhs),rhsMax =  -3.43411082922426E-05  1.40074217753660E-01
 cg2d: Sum(rhs),rhsMax =  -3.40380383808464E-05  1.40083141425777E-01
 cg2d: Sum(rhs),rhsMax =  -3.37449132116838E-05  1.40092065520788E-01
 cg2d: Sum(rhs),rhsMax =  -3.34617449321839E-05  1.40100990019017E-01
 cg2d: Sum(rhs),rhsMax =  -3.31885453846558E-05  1.40109914900792E-01
 cg2d: Sum(rhs),rhsMax =  -3.29253261014701E-05  1.40118840146443E-01
 cg2d: Sum(rhs),rhsMax =  -3.26720985962762E-05  1.40127765736298E-01
 cg2d: Sum(rhs),rhsMax =  -3.24288740555763E-05  1.40136691650690E-01
 cg2d: Sum(rhs),rhsMax =  -3.21956634676919E-05  1.40145617869953E-01
 cg2d: Sum(rhs),rhsMax =  -3.19724775622214E-05  1.40154544374423E-01
 cg2d: Sum(rhs),rhsMax =  -3.17593268468093E-05  1.40163471144439E-01
 cg2d: Sum(rhs),rhsMax =  -3.15562213209809E-05  1.40172398160338E-01
 cg2d: Sum(rhs),rhsMax =  -3.13631710195106E-05  1.40181325402464E-01
 cg2d: Sum(rhs),rhsMax =  -3.11801855045158E-05  1.40190252851158E-01
 cg2d: Sum(rhs),rhsMax =  -3.10072740814940E-05  1.40199180486770E-01
 cg2d: Sum(rhs),rhsMax =  -3.08444457777085E-05  1.40208108289645E-01
 cg2d: Sum(rhs),rhsMax =  -3.06917092069399E-05  1.40217036240134E-01
 cg2d: Sum(rhs),rhsMax =  -3.05490726940968E-05  1.40225964318590E-01
 cg2d: Sum(rhs),rhsMax =  -3.04165443018971E-05  1.40234892505367E-01
 cg2d: Sum(rhs),rhsMax =  -3.02941316751727E-05  1.40243820780824E-01
 cg2d: Sum(rhs),rhsMax =  -3.01818421130067E-05  1.40252749125319E-01
 cg2d: Sum(rhs),rhsMax =  -3.00796827139970E-05  1.40261677519215E-01
 cg2d: Sum(rhs),rhsMax =  -2.99876600692358E-05  1.40270605942875E-01
 cg2d: Sum(rhs),rhsMax =  -2.99057804512065E-05  1.40279534376668E-01
 cg2d: Sum(rhs),rhsMax =  -2.98340496583368E-05  1.40288462800964E-01
 cg2d: Sum(rhs),rhsMax =  -2.97724734196576E-05  1.40297391196135E-01
 cg2d: Sum(rhs),rhsMax =  -2.97210568132224E-05  1.40306319542554E-01
 cg2d: Sum(rhs),rhsMax =  -2.96798047096985E-05  1.40315247820602E-01
 cg2d: Sum(rhs),rhsMax =  -2.96487215311891E-05  1.40324176010658E-01
 cg2d: Sum(rhs),rhsMax =  -2.96278114591281E-05  1.40333104093106E-01
 cg2d: Sum(rhs),rhsMax =  -2.96170781919252E-05  1.40342032048332E-01
 cg2d: Sum(rhs),rhsMax =  -2.96165250571866E-05  1.40350959856726E-01
 cg2d: Sum(rhs),rhsMax =  -2.96261549611494E-05  1.40359887498681E-01
 cg2d: Sum(rhs),rhsMax =  -2.96459706407189E-05  1.40368814954591E-01
 cg2d: Sum(rhs),rhsMax =  -2.96759743426212E-05  1.40377742204856E-01
 cg2d: Sum(rhs),rhsMax =  -2.97161678096559E-05  1.40386669229875E-01
 cg2d: Sum(rhs),rhsMax =  -2.97665526692720E-05  1.40395596010056E-01
 cg2d: Sum(rhs),rhsMax =  -2.98271300417314E-05  1.40404522525805E-01
 cg2d: Sum(rhs),rhsMax =  -2.98979007661050E-05  1.40413448757535E-01
 cg2d: Sum(rhs),rhsMax =  -2.99788651387922E-05  1.40422374685658E-01
 cg2d: Sum(rhs),rhsMax =  -3.00700234017563E-05  1.40431300290596E-01
 cg2d: Sum(rhs),rhsMax =  -3.01713750475554E-05  1.40440225552767E-01
 cg2d: Sum(rhs),rhsMax =  -3.02829196020460E-05  1.40449150452597E-01
 cg2d: Sum(rhs),rhsMax =  -3.04046558601556E-05  1.40458074970515E-01
 cg2d: Sum(rhs),rhsMax =  -3.05365827093836E-05  1.40466999086952E-01
 cg2d: Sum(rhs),rhsMax =  -3.06786982408828E-05  1.40475922782344E-01
 cg2d: Sum(rhs),rhsMax =  -3.08310005493360E-05  1.40484846037131E-01
 cg2d: Sum(rhs),rhsMax =  -3.09934870633887E-05  1.40493768831755E-01
 cg2d: Sum(rhs),rhsMax =  -3.11661551520310E-05  1.40502691146663E-01
 cg2d: Sum(rhs),rhsMax =  -3.13490018325141E-05  1.40511612962307E-01
 cg2d: Sum(rhs),rhsMax =  -3.15420235736082E-05  1.40520534259139E-01
 cg2d: Sum(rhs),rhsMax =  -3.17452167035784E-05  1.40529455017618E-01
(PID.TID 0000.0001)      cg2d_init_res =   8.45675110846416E-04
(PID.TID 0000.0001)      cg2d_iters(min,last) =      -1      65
(PID.TID 0000.0001)      cg2d_last_res =   9.05470282694957E-08
(PID.TID 0000.0001) // =======================================================
(PID.TID 0000.0001) // Begin MONITOR dynamic field statistics
(PID.TID 0000.0001) // =======================================================
(PID.TID 0000.0001) %MON time_tsnumber                =                 13032
(PID.TID 0000.0001) %MON time_secondsf                =   1.5638400000000E+07
(PID.TID 0000.0001) %MON dynstat_eta_max              =   4.4324750955957E-02
(PID.TID 0000.0001) %MON dynstat_eta_min              =  -2.4557370179995E-02
(PID.TID 0000.0001) %MON dynstat_eta_mean             =   2.2457032533328E-08
(PID.TID 0000.0001) %MON dynstat_eta_sd               =   1.8313618674043E-02
(PID.TID 0000.0001) %MON dynstat_eta_del2             =   1.7333798312799E-05
(PID.TID 0000.0001) %MON dynstat_uvel_max             =   3.0505783081914E-02
(PID.TID 0000.0001) %MON dynstat_uvel_min             =  -1.6586666141181E-02
(PID.TID 0000.0001) %MON dynstat_uvel_mean            =  -2.2462416499123E-07
(PID.TID 0000.0001) %MON dynstat_uvel_sd              =   7.3967636459923E-03
(PID.TID 0000.0001) %MON dynstat_uvel_del2            =   8.5806012644030E-06
(PID.TID 0000.0001) %MON dynstat_vvel_max             =   8.4032213672458E-02
(PID.TID 0000.0001) %MON dynstat_vvel_min             =  -2.9113976147007E-02
(PID.TID 0000.0001) %MON dynstat_vvel_mean            =  -4.8158778976982E-09
(PID.TID 0000.0001) %MON dynstat_vvel_sd              =   1.4435346204831E-02
(PID.TID 0000.0001) %MON dynstat_vvel_del2            =   7.2341952141477E-05
(PID.TID 0000.0001) %MON dynstat_wvel_max             =   1.1018602777340E-08
(PID.TID 0000.0001) %MON dynstat_wvel_min             =  -8.7504320638254E-09
(PID.TID 0000.0001) %MON dynstat_wvel_mean            =  -2.3323078974297E-22
(PID.TID 0000.0001) %MON dynstat_wvel_sd              =   4.8975185887373E-09
(PID.TID 0000.0001) %MON dynstat_wvel_del2            =   1.6536751680022E-12
(PID.TID 0000.0001) %MON dynstat_theta_max            =   2.0000000000000E+01
(PID.TID 0000.0001) %MON dynstat_theta_min            =   2.0000000000000E+01
(PID.TID 0000.0001) %MON dynstat_theta_mean           =   2.0000000000000E+01
(PID.TID 0000.0001) %MON dynstat_theta_sd             =   0.0000000000000E+00
(PID.TID 0000.0001) %MON dynstat_theta_del2           =   0.0000000000000E+00
(PID.TID 0000.0001) %MON dynstat_salt_max             =   3.0000000000000E+01
(PID.TID 0000.0001) %MON dynstat_salt_min             =   3.0000000000000E+01
(PID.TID 0000.0001) %MON dynstat_salt_mean            =   3.0000000000000E+01
(PID.TID 0000.0001) %MON dynstat_salt_sd              =   0.0000000000000E+00
(PID.TID 0000.0001) %MON dynstat_salt_del2            =   0.0000000000000E+00
(PID.TID 0000.0001) %MON trAdv_CFL_u_max              =   1.8302555876796E-03
(PID.TID 0000.0001) %MON trAdv_CFL_v_max              =   5.0416321583029E-03
(PID.TID 0000.0001) %MON trAdv_CFL_w_max              =   2.6460037587334E-09
(PID.TID 0000.0001) %MON advcfl_uvel_max              =   1.8303469849148E-03
(PID.TID 0000.0001) %MON advcfl_vvel_max              =   5.0419328203475E-03
(PID.TID 0000.0001) %MON advcfl_wvel_max              =   5.2889293331231E-09
(PID.TID 0000.0001) %MON advcfl_W_hf_max              =   0.0000000000000E+00
(PID.TID 0000.0001) %MON pe_b_mean                    =   3.2901624498894E-07
(PID.TID 0000.0001) %MON ke_max                       =   3.5306118299237E-03
(PID.TID 0000.0001) %MON ke_mean                      =   1.2935323849809E-04
(PID.TID 0000.0001) %MON ke_vol                       =   7.2000000000000E+15
(PID.TID 0000.0001) %MON vort_r_min                   =  -1.4839807808531E-06
(PID.TID 0000.0001) %MON vort_r_max                   =   2.3451377346978E-06
(PID.TID 0000.0001) %MON vort_a_mean                  =   1.0600000000000E-04
(PID.TID 0000.0001) %MON vort_a_sd                    =   3.5359484443397E-06
(PID.TID 0000.0001) %MON vort_p_mean                  =   1.1130000000000E-04
(PID.TID 0000.0001) %MON vort_p_sd                    =   4.1152890174255E-05
(PID.TID 0000.0001) %MON surfExpan_theta_mean         =  -4.6648709586508E-21
(PID.TID 0000.0001) %MON surfExpan_salt_mean          =  -6.9971288022922E-21
(PID.TID 0000.0001) // =======================================================
(PID.TID 0000.0001) // End MONITOR dynamic field statistics
(PID.TID 0000.0001) // =======================================================
 cg2d: Sum(rhs),rhsMax =  -3.19585771463848E-05  1.40538375218206E-01
 cg2d: Sum(rhs),rhsMax =  -3.21821005428583E-05  1.40547294841370E-01
 cg2d: Sum(rhs),rhsMax =  -3.24157821241016E-05  1.40556213867580E-01
 cg2d: Sum(rhs),rhsMax =  -3.26596169648976E-05  1.40565132277310E-01
 cg2d: Sum(rhs),rhsMax =  -3.29135996371696E-05  1.40574050051038E-01
 cg2d: Sum(rhs),rhsMax =  -3.31777245880802E-05  1.40582967169246E-01
 cg2d: Sum(rhs),rhsMax =  -3.34519857711733E-05  1.40591883612423E-01
 cg2d: Sum(rhs),rhsMax =  -3.37363771270539E-05  1.40600799361058E-01
 cg2d: Sum(rhs),rhsMax =  -3.40308919556500E-05  1.40609714395647E-01
 cg2d: Sum(rhs),rhsMax =  -3.43355234804412E-05  1.40618628696690E-01
 cg2d: Sum(rhs),rhsMax =  -3.46502644845148E-05  1.40627542244691E-01
 cg2d: Sum(rhs),rhsMax =  -3.49751076556539E-05  1.40636455020158E-01
 cg2d: Sum(rhs),rhsMax =  -3.53100452233661E-05  1.40645367003605E-01
 cg2d: Sum(rhs),rhsMax =  -3.56550691870596E-05  1.40654278175548E-01
 cg2d: Sum(rhs),rhsMax =  -3.60101714897828E-05  1.40663188516510E-01
 cg2d: Sum(rhs),rhsMax =  -3.63753433162643E-05  1.40672098007019E-01
 cg2d: Sum(rhs),rhsMax =  -3.67505761190608E-05  1.40681006627604E-01
 cg2d: Sum(rhs),rhsMax =  -3.71358607461373E-05  1.40689914358803E-01
 cg2d: Sum(rhs),rhsMax =  -3.75311877425163E-05  1.40698821181157E-01
 cg2d: Sum(rhs),rhsMax =  -3.79365476917276E-05  1.40707727075210E-01
 cg2d: Sum(rhs),rhsMax =  -3.83519306631922E-05  1.40716632021515E-01
 cg2d: Sum(rhs),rhsMax =  -3.87773266922282E-05  1.40725536000626E-01
 cg2d: Sum(rhs),rhsMax =  -3.92127253568469E-05  1.40734438993104E-01
 cg2d: Sum(rhs),rhsMax =  -3.96581161142100E-05  1.40743340979514E-01
 cg2d: Sum(rhs),rhsMax =  -4.01134881261389E-05  1.40752241940428E-01
 cg2d: Sum(rhs),rhsMax =  -4.05788303543151E-05  1.40761141856420E-01
 cg2d: Sum(rhs),rhsMax =  -4.10541314471392E-05  1.40770040708071E-01
 cg2d: Sum(rhs),rhsMax =  -4.15393798753935E-05  1.40778938475968E-01
 cg2d: Sum(rhs),rhsMax =  -4.20345640153186E-05  1.40787835140701E-01
 cg2d: Sum(rhs),rhsMax =  -4.25396719026241E-05  1.40796730682868E-01
 cg2d: Sum(rhs),rhsMax =  -4.30546911918501E-05  1.40805625083069E-01
 cg2d: Sum(rhs),rhsMax =  -4.35796095898666E-05  1.40814518321912E-01
 cg2d: Sum(rhs),rhsMax =  -4.41144144881240E-05  1.40823410380010E-01
 cg2d: Sum(rhs),rhsMax =  -4.46590930421363E-05  1.40832301237980E-01
 cg2d: Sum(rhs),rhsMax =  -4.52136321566583E-05  1.40841190876447E-01
 cg2d: Sum(rhs),rhsMax =  -4.57780186780528E-05  1.40850079276039E-01
 cg2d: Sum(rhs),rhsMax =  -4.63522391808968E-05  1.40858966417390E-01
 cg2d: Sum(rhs),rhsMax =  -4.69362799429118E-05  1.40867852281142E-01
 cg2d: Sum(rhs),rhsMax =  -4.73998650538524E-05  1.40876736452800E-01
 cg2d: Sum(rhs),rhsMax =  -4.78706356477933E-05  1.40885619725643E-01
 cg2d: Sum(rhs),rhsMax =  -4.83486245017603E-05  1.40894501656192E-01
 cg2d: Sum(rhs),rhsMax =  -4.88339135017541E-05  1.40903382201482E-01
 cg2d: Sum(rhs),rhsMax =  -4.93265138256397E-05  1.40912261366106E-01
 cg2d: Sum(rhs),rhsMax =  -4.98263945051943E-05  1.40921139141916E-01
 cg2d: Sum(rhs),rhsMax =  -5.03335123875981E-05  1.40930015512472E-01
 cg2d: Sum(rhs),rhsMax =  -5.08478283846097E-05  1.40938890456022E-01
 cg2d: Sum(rhs),rhsMax =  -5.13693122795745E-05  1.40947763949221E-01
 cg2d: Sum(rhs),rhsMax =  -5.18979409036887E-05  1.40956635970061E-01
 cg2d: Sum(rhs),rhsMax =  -5.24336943955993E-05  1.40965506498652E-01
 cg2d: Sum(rhs),rhsMax =  -5.29765528644458E-05  1.40974375516489E-01
 cg2d: Sum(rhs),rhsMax =  -5.35264948670882E-05  1.40983243005363E-01
 cg2d: Sum(rhs),rhsMax =  -5.40834970489184E-05  1.40992108946674E-01
 cg2d: Sum(rhs),rhsMax =  -5.46475346294923E-05  1.41000973321297E-01
 cg2d: Sum(rhs),rhsMax =  -5.52185827000385E-05  1.41009836109759E-01
 cg2d: Sum(rhs),rhsMax =  -5.57966163477613E-05  1.41018697292520E-01
 cg2d: Sum(rhs),rhsMax =  -5.63816111597542E-05  1.41027556850140E-01
 cg2d: Sum(rhs),rhsMax =  -5.69735428631816E-05  1.41036414763327E-01
 cg2d: Sum(rhs),rhsMax =  -5.75723873096389E-05  1.41045271012891E-01
 cg2d: Sum(rhs),rhsMax =  -5.81781200308931E-05  1.41054125579681E-01
 cg2d: Sum(rhs),rhsMax =  -5.87907166115630E-05  1.41062978444533E-01
 cg2d: Sum(rhs),rhsMax =  -5.94101519636779E-05  1.41071829588249E-01
 cg2d: Sum(rhs),rhsMax =  -6.00364012735381E-05  1.41080678991615E-01
 cg2d: Sum(rhs),rhsMax =  -6.06694395887024E-05  1.41089526635407E-01
 cg2d: Sum(rhs),rhsMax =  -6.13092417079695E-05  1.41098372500411E-01
 cg2d: Sum(rhs),rhsMax =  -6.19557826626984E-05  1.41107216567430E-01
 cg2d: Sum(rhs),rhsMax =  -6.26090372200889E-05  1.41116058817278E-01
 cg2d: Sum(rhs),rhsMax =  -6.32689800635173E-05  1.41124899230782E-01
 cg2d: Sum(rhs),rhsMax =  -6.39355859999259E-05  1.41133737788776E-01
 cg2d: Sum(rhs),rhsMax =  -6.46088295948831E-05  1.41142574472102E-01
 cg2d: Sum(rhs),rhsMax =  -6.52307885276628E-05  1.41151409582950E-01
 cg2d: Sum(rhs),rhsMax =  -6.58585498965305E-05  1.41160242453124E-01
 cg2d: Sum(rhs),rhsMax =  -6.64921611447751E-05  1.41169073402600E-01
(PID.TID 0000.0001)      cg2d_init_res =   8.36251550533957E-04
(PID.TID 0000.0001)      cg2d_iters(min,last) =      -1      69
(PID.TID 0000.0001)      cg2d_last_res =   9.62087470044746E-08
(PID.TID 0000.0001) // =======================================================
(PID.TID 0000.0001) // Begin MONITOR dynamic field statistics
(PID.TID 0000.0001) // =======================================================
(PID.TID 0000.0001) %MON time_tsnumber                =                 13104
(PID.TID 0000.0001) %MON time_secondsf                =   1.5724800000000E+07
(PID.TID 0000.0001) %MON dynstat_eta_max              =   4.4748007351593E-02
(PID.TID 0000.0001) %MON dynstat_eta_min              =  -2.4545686471097E-02
(PID.TID 0000.0001) %MON dynstat_eta_mean             =   4.7387491232389E-08
(PID.TID 0000.0001) %MON dynstat_eta_sd               =   1.8534038725160E-02
(PID.TID 0000.0001) %MON dynstat_eta_del2             =   1.7344175956702E-05
(PID.TID 0000.0001) %MON dynstat_uvel_max             =   3.0617707504169E-02
(PID.TID 0000.0001) %MON dynstat_uvel_min             =  -1.6782171825386E-02
(PID.TID 0000.0001) %MON dynstat_uvel_mean            =  -2.1770227910600E-07
(PID.TID 0000.0001) %MON dynstat_uvel_sd              =   7.4284626561439E-03
(PID.TID 0000.0001) %MON dynstat_uvel_del2            =   8.5914781720736E-06
(PID.TID 0000.0001) %MON dynstat_vvel_max             =   8.4406383604550E-02
(PID.TID 0000.0001) %MON dynstat_vvel_min             =  -2.8908890180011E-02
(PID.TID 0000.0001) %MON dynstat_vvel_mean            =  -3.6774303854013E-09
(PID.TID 0000.0001) %MON dynstat_vvel_sd              =   1.4504871718018E-02
(PID.TID 0000.0001) %MON dynstat_vvel_del2            =   7.2533010064073E-05
(PID.TID 0000.0001) %MON dynstat_wvel_max             =   1.0599659236732E-08
(PID.TID 0000.0001) %MON dynstat_wvel_min             =  -9.0987198898802E-09
(PID.TID 0000.0001) %MON dynstat_wvel_mean            =   4.0257709264956E-22
(PID.TID 0000.0001) %MON dynstat_wvel_sd              =   4.8468155162703E-09
(PID.TID 0000.0001) %MON dynstat_wvel_del2            =   1.6463218063198E-12
(PID.TID 0000.0001) %MON dynstat_theta_max            =   2.0000000000000E+01
(PID.TID 0000.0001) %MON dynstat_theta_min            =   2.0000000000000E+01
(PID.TID 0000.0001) %MON dynstat_theta_mean           =   2.0000000000000E+01
(PID.TID 0000.0001) %MON dynstat_theta_sd             =   0.0000000000000E+00
(PID.TID 0000.0001) %MON dynstat_theta_del2           =   0.0000000000000E+00
(PID.TID 0000.0001) %MON dynstat_salt_max             =   3.0000000000000E+01
(PID.TID 0000.0001) %MON dynstat_salt_min             =   3.0000000000000E+01
(PID.TID 0000.0001) %MON dynstat_salt_mean            =   3.0000000000000E+01
(PID.TID 0000.0001) %MON dynstat_salt_sd              =   0.0000000000000E+00
(PID.TID 0000.0001) %MON dynstat_salt_del2            =   0.0000000000000E+00
(PID.TID 0000.0001) %MON trAdv_CFL_u_max              =   1.8369675478109E-03
(PID.TID 0000.0001) %MON trAdv_CFL_v_max              =   5.0640679929282E-03
(PID.TID 0000.0001) %MON trAdv_CFL_w_max              =   2.5454248996473E-09
(PID.TID 0000.0001) %MON advcfl_uvel_max              =   1.8370624502501E-03
(PID.TID 0000.0001) %MON advcfl_vvel_max              =   5.0643830162730E-03
(PID.TID 0000.0001) %MON advcfl_wvel_max              =   5.0878364336313E-09
(PID.TID 0000.0001) %MON advcfl_W_hf_max              =   0.0000000000000E+00
(PID.TID 0000.0001) %MON pe_b_mean                    =   3.3698389023008E-07
(PID.TID 0000.0001) %MON ke_max                       =   3.5617483853687E-03
(PID.TID 0000.0001) %MON ke_mean                      =   1.3057356917667E-04
(PID.TID 0000.0001) %MON ke_vol                       =   7.2000000000000E+15
(PID.TID 0000.0001) %MON vort_r_min                   =  -1.4850564037689E-06
(PID.TID 0000.0001) %MON vort_r_max                   =   2.3559951667396E-06
(PID.TID 0000.0001) %MON vort_a_mean                  =   1.0600000000000E-04
(PID.TID 0000.0001) %MON vort_a_sd                    =   3.5360492406644E-06
(PID.TID 0000.0001) %MON vort_p_mean                  =   1.1130000000000E-04
(PID.TID 0000.0001) %MON vort_p_sd                    =   4.1152938125013E-05
(PID.TID 0000.0001) %MON surfExpan_theta_mean         =   8.0491860090761E-21
(PID.TID 0000.0001) %MON surfExpan_salt_mean          =   1.2073147420071E-20
(PID.TID 0000.0001) // =======================================================
(PID.TID 0000.0001) // End MONITOR dynamic field statistics
(PID.TID 0000.0001) // =======================================================
 cg2d: Sum(rhs),rhsMax =  -6.71315984367461E-05  1.41177902395885E-01
 cg2d: Sum(rhs),rhsMax =  -6.77768444273833E-05  1.41186729418300E-01
 cg2d: Sum(rhs),rhsMax =  -6.84278700457354E-05  1.41195554452160E-01
 cg2d: Sum(rhs),rhsMax =  -6.90846431735505E-05  1.41204377479481E-01
 cg2d: Sum(rhs),rhsMax =  -6.97471332720082E-05  1.41213198480514E-01
 cg2d: Sum(rhs),rhsMax =  -7.04153117437288E-05  1.41222017435126E-01
 cg2d: Sum(rhs),rhsMax =  -7.10891517477184E-05  1.41230834323489E-01
 cg2d: Sum(rhs),rhsMax =  -7.17686271475490E-05  1.41239649126356E-01
 cg2d: Sum(rhs),rhsMax =  -7.24537118340198E-05  1.41248461824857E-01
 cg2d: Sum(rhs),rhsMax =  -7.31443792588160E-05  1.41257272400219E-01
 cg2d: Sum(rhs),rhsMax =  -7.38406024029378E-05  1.41266080833565E-01
 cg2d: Sum(rhs),rhsMax =  -7.45423542922591E-05  1.41274887105884E-01
 cg2d: Sum(rhs),rhsMax =  -7.52496075621641E-05  1.41283691198079E-01
 cg2d: Sum(rhs),rhsMax =  -7.59049775032666E-05  1.41292492892983E-01
 cg2d: Sum(rhs),rhsMax =  -7.65652533873699E-05  1.41301292562488E-01
 cg2d: Sum(rhs),rhsMax =  -7.72303648871875E-05  1.41310090001480E-01
 cg2d: Sum(rhs),rhsMax =  -7.79003122629209E-05  1.41318885182786E-01
 cg2d: Sum(rhs),rhsMax =  -7.85750730159492E-05  1.41327678087920E-01
 cg2d: Sum(rhs),rhsMax =  -7.92546183222545E-05  1.41336468699605E-01
 cg2d: Sum(rhs),rhsMax =  -7.99389188809486E-05  1.41345256999569E-01
 cg2d: Sum(rhs),rhsMax =  -8.06279461541539E-05  1.41354042968403E-01
 cg2d: Sum(rhs),rhsMax =  -8.13216728381685E-05  1.41362826586306E-01
 cg2d: Sum(rhs),rhsMax =  -8.20200723853385E-05  1.41371607833729E-01
 cg2d: Sum(rhs),rhsMax =  -8.27231181871751E-05  1.41380386691565E-01
 cg2d: Sum(rhs),rhsMax =  -8.34307837689549E-05  1.41389163141019E-01
 cg2d: Sum(rhs),rhsMax =  -8.41430425505578E-05  1.41397937163377E-01
 cg2d: Sum(rhs),rhsMax =  -8.48598677554947E-05  1.41406708739859E-01
 cg2d: Sum(rhs),rhsMax =  -8.55812327959331E-05  1.41415477851581E-01
 cg2d: Sum(rhs),rhsMax =  -8.63071110021162E-05  1.41424244479593E-01
 cg2d: Sum(rhs),rhsMax =  -8.70374757242975E-05  1.41433008604935E-01
 cg2d: Sum(rhs),rhsMax =  -8.77723004715754E-05  1.41441770208673E-01
 cg2d: Sum(rhs),rhsMax =  -8.85115588218710E-05  1.41450529271909E-01
 cg2d: Sum(rhs),rhsMax =  -8.92552244362663E-05  1.41459285775776E-01
 cg2d: Sum(rhs),rhsMax =  -9.00032709443719E-05  1.41468039701416E-01
 cg2d: Sum(rhs),rhsMax =  -9.07556720376752E-05  1.41476791029981E-01
 cg2d: Sum(rhs),rhsMax =  -9.15124015307854E-05  1.41485539742621E-01
 cg2d: Sum(rhs),rhsMax =  -9.22734334078846E-05  1.41494285820493E-01
 cg2d: Sum(rhs),rhsMax =  -9.30387414135895E-05  1.41503029244757E-01
 cg2d: Sum(rhs),rhsMax =  -9.38082995927429E-05  1.41511769996587E-01
 cg2d: Sum(rhs),rhsMax =  -9.45820819631066E-05  1.41520508057165E-01
 cg2d: Sum(rhs),rhsMax =  -9.53600626773876E-05  1.41529243407683E-01
 cg2d: Sum(rhs),rhsMax =  -9.61422159071199E-05  1.41537976029345E-01
 cg2d: Sum(rhs),rhsMax =  -9.69285158685948E-05  1.41546705903363E-01
 cg2d: Sum(rhs),rhsMax =  -9.77189369268938E-05  1.41555433010956E-01
 cg2d: Sum(rhs),rhsMax =  -9.85134534899216E-05  1.41564157333354E-01
 cg2d: Sum(rhs),rhsMax =  -9.93120400024907E-05  1.41572878851794E-01
 cg2d: Sum(rhs),rhsMax =  -1.00114671171117E-04  1.41581597547527E-01
 cg2d: Sum(rhs),rhsMax =  -1.00921321400982E-04  1.41590313401807E-01
 cg2d: Sum(rhs),rhsMax =  -1.01731965324699E-04  1.41599026395901E-01
 cg2d: Sum(rhs),rhsMax =  -1.02546577932280E-04  1.41607736511086E-01
 cg2d: Sum(rhs),rhsMax =  -1.03365134084870E-04  1.41616443728646E-01
 cg2d: Sum(rhs),rhsMax =  -1.04187608589775E-04  1.41625148029876E-01
 cg2d: Sum(rhs),rhsMax =  -1.05013976550752E-04  1.41633849396079E-01
 cg2d: Sum(rhs),rhsMax =  -1.05844213046183E-04  1.41642547808572E-01
 cg2d: Sum(rhs),rhsMax =  -1.06678293344969E-04  1.41651243248676E-01
 cg2d: Sum(rhs),rhsMax =  -1.07516192563273E-04  1.41659935697725E-01
 cg2d: Sum(rhs),rhsMax =  -1.08357886193380E-04  1.41668625137060E-01
 cg2d: Sum(rhs),rhsMax =  -1.09203349586453E-04  1.41677311548037E-01
 cg2d: Sum(rhs),rhsMax =  -1.10052558352012E-04  1.41685994912016E-01
 cg2d: Sum(rhs),rhsMax =  -1.10905488104733E-04  1.41694675210369E-01
 cg2d: Sum(rhs),rhsMax =  -1.11762114408810E-04  1.41703352424479E-01
 cg2d: Sum(rhs),rhsMax =  -1.12622413203733E-04  1.41712026535739E-01
 cg2d: Sum(rhs),rhsMax =  -1.13486360406018E-04  1.41720697525548E-01
 cg2d: Sum(rhs),rhsMax =  -1.14353931834634E-04  1.41729365375320E-01
 cg2d: Sum(rhs),rhsMax =  -1.15225103622456E-04  1.41738030066477E-01
 cg2d: Sum(rhs),rhsMax =  -1.16099851946083E-04  1.41746691580450E-01
 cg2d: Sum(rhs),rhsMax =  -1.16978152994268E-04  1.41755349898684E-01
 cg2d: Sum(rhs),rhsMax =  -1.17859983172462E-04  1.41764005002627E-01
 cg2d: Sum(rhs),rhsMax =  -1.18745318786861E-04  1.41772656873744E-01
 cg2d: Sum(rhs),rhsMax =  -1.19634136379828E-04  1.41781305493509E-01
 cg2d: Sum(rhs),rhsMax =  -1.20526412740836E-04  1.41789950843404E-01
 cg2d: Sum(rhs),rhsMax =  -1.21422124319740E-04  1.41798592904922E-01
(PID.TID 0000.0001)      cg2d_init_res =   8.25825087214186E-04
(PID.TID 0000.0001)      cg2d_iters(min,last) =      -1      70
(PID.TID 0000.0001)      cg2d_last_res =   9.56625253733101E-08
(PID.TID 0000.0001) // =======================================================
(PID.TID 0000.0001) // Begin MONITOR dynamic field statistics
(PID.TID 0000.0001) // =======================================================
(PID.TID 0000.0001) %MON time_tsnumber                =                 13176
(PID.TID 0000.0001) %MON time_secondsf                =   1.5811200000000E+07
(PID.TID 0000.0001) %MON dynstat_eta_max              =   4.5205519353055E-02
(PID.TID 0000.0001) %MON dynstat_eta_min              =  -2.4495168494751E-02
(PID.TID 0000.0001) %MON dynstat_eta_mean             =   8.6730187858018E-08
(PID.TID 0000.0001) %MON dynstat_eta_sd               =   1.8731578378763E-02
(PID.TID 0000.0001) %MON dynstat_eta_del2             =   1.7358531165593E-05
(PID.TID 0000.0001) %MON dynstat_uvel_max             =   3.0733134336140E-02
(PID.TID 0000.0001) %MON dynstat_uvel_min             =  -1.6968680818472E-02
(PID.TID 0000.0001) %MON dynstat_uvel_mean            =  -2.0821233394717E-07
(PID.TID 0000.0001) %MON dynstat_uvel_sd              =   7.4502906174809E-03
(PID.TID 0000.0001) %MON dynstat_uvel_del2            =   8.5952430225451E-06
(PID.TID 0000.0001) %MON dynstat_vvel_max             =   8.4783303330758E-02
(PID.TID 0000.0001) %MON dynstat_vvel_min             =  -2.8723950406470E-02
(PID.TID 0000.0001) %MON dynstat_vvel_mean            =  -2.5600873671020E-09
(PID.TID 0000.0001) %MON dynstat_vvel_sd              =   1.4575385269716E-02
(PID.TID 0000.0001) %MON dynstat_vvel_del2            =   7.2735797754594E-05
(PID.TID 0000.0001) %MON dynstat_wvel_max             =   1.0153208681643E-08
(PID.TID 0000.0001) %MON dynstat_wvel_min             =  -9.4748202065239E-09
(PID.TID 0000.0001) %MON dynstat_wvel_mean            =  -4.2974357307281E-22
(PID.TID 0000.0001) %MON dynstat_wvel_sd              =   4.7956181818833E-09
(PID.TID 0000.0001) %MON dynstat_wvel_del2            =   1.6615750422232E-12
(PID.TID 0000.0001) %MON dynstat_theta_max            =   2.0000000000000E+01
(PID.TID 0000.0001) %MON dynstat_theta_min            =   2.0000000000000E+01
(PID.TID 0000.0001) %MON dynstat_theta_mean           =   2.0000000000000E+01
(PID.TID 0000.0001) %MON dynstat_theta_sd             =   0.0000000000000E+00
(PID.TID 0000.0001) %MON dynstat_theta_del2           =   0.0000000000000E+00
(PID.TID 0000.0001) %MON dynstat_salt_max             =   3.0000000000000E+01
(PID.TID 0000.0001) %MON dynstat_salt_min             =   3.0000000000000E+01
(PID.TID 0000.0001) %MON dynstat_salt_mean            =   3.0000000000000E+01
(PID.TID 0000.0001) %MON dynstat_salt_sd              =   0.0000000000000E+00
(PID.TID 0000.0001) %MON dynstat_salt_del2            =   0.0000000000000E+00
(PID.TID 0000.0001) %MON trAdv_CFL_u_max              =   1.8438908106250E-03
(PID.TID 0000.0001) %MON trAdv_CFL_v_max              =   5.0866855879282E-03
(PID.TID 0000.0001) %MON trAdv_CFL_w_max              =   2.4382631697632E-09
(PID.TID 0000.0001) %MON advcfl_uvel_max              =   1.8439880601684E-03
(PID.TID 0000.0001) %MON advcfl_vvel_max              =   5.0869981998455E-03
(PID.TID 0000.0001) %MON advcfl_wvel_max              =   4.8735401671885E-09
(PID.TID 0000.0001) %MON advcfl_W_hf_max              =   0.0000000000000E+00
(PID.TID 0000.0001) %MON pe_b_mean                    =   3.4420546002447E-07
(PID.TID 0000.0001) %MON ke_max                       =   3.5929584542047E-03
(PID.TID 0000.0001) %MON ke_mean                      =   1.3174143732706E-04
(PID.TID 0000.0001) %MON ke_vol                       =   7.2000000000000E+15
(PID.TID 0000.0001) %MON vort_r_min                   =  -1.4863473691534E-06
(PID.TID 0000.0001) %MON vort_r_max                   =   2.3664989444126E-06
(PID.TID 0000.0001) %MON vort_a_mean                  =   1.0600000000000E-04
(PID.TID 0000.0001) %MON vort_a_sd                    =   3.5361535680534E-06
(PID.TID 0000.0001) %MON vort_p_mean                  =   1.1130000000000E-04
(PID.TID 0000.0001) %MON vort_p_sd                    =   4.1152972180903E-05
(PID.TID 0000.0001) %MON surfExpan_theta_mean         =  -8.5972513059258E-21
(PID.TID 0000.0001) %MON surfExpan_salt_mean          =  -1.2894929568574E-20
(PID.TID 0000.0001) // =======================================================
(PID.TID 0000.0001) // End MONITOR dynamic field statistics
(PID.TID 0000.0001) // =======================================================
 cg2d: Sum(rhs),rhsMax =  -1.22321248125033E-04  1.41807231659568E-01
 cg2d: Sum(rhs),rhsMax =  -1.23223760995583E-04  1.41815867088855E-01
 cg2d: Sum(rhs),rhsMax =  -1.24129639858629E-04  1.41824499174310E-01
 cg2d: Sum(rhs),rhsMax =  -1.25038861760604E-04  1.41833127897467E-01
 cg2d: Sum(rhs),rhsMax =  -1.25951403935476E-04  1.41841753239872E-01
 cg2d: Sum(rhs),rhsMax =  -1.26867243676317E-04  1.41850375183080E-01
 cg2d: Sum(rhs),rhsMax =  -1.27786358225050E-04  1.41858993708662E-01
 cg2d: Sum(rhs),rhsMax =  -1.28708725214852E-04  1.41867608798192E-01
 cg2d: Sum(rhs),rhsMax =  -1.29634322098785E-04  1.41876220433262E-01
 cg2d: Sum(rhs),rhsMax =  -1.30563126399639E-04  1.41884828595469E-01
 cg2d: Sum(rhs),rhsMax =  -1.31495116126494E-04  1.41893433266425E-01
 cg2d: Sum(rhs),rhsMax =  -1.32430268814375E-04  1.41902034427748E-01
 cg2d: Sum(rhs),rhsMax =  -1.33368562661568E-04  1.41910632061073E-01
 cg2d: Sum(rhs),rhsMax =  -1.34309975581498E-04  1.41919226148043E-01
 cg2d: Sum(rhs),rhsMax =  -1.35254485627126E-04  1.41927816670310E-01
 cg2d: Sum(rhs),rhsMax =  -1.36122465954352E-04  1.41936403921321E-01
 cg2d: Sum(rhs),rhsMax =  -1.36992997867464E-04  1.41944987277149E-01
 cg2d: Sum(rhs),rhsMax =  -1.37866123268301E-04  1.41953566999729E-01
 cg2d: Sum(rhs),rhsMax =  -1.38741786397298E-04  1.41962143082658E-01
 cg2d: Sum(rhs),rhsMax =  -1.39619962768390E-04  1.41970715510334E-01
 cg2d: Sum(rhs),rhsMax =  -1.40500629975926E-04  1.41979284263918E-01
 cg2d: Sum(rhs),rhsMax =  -1.41383769101249E-04  1.41987849325785E-01
 cg2d: Sum(rhs),rhsMax =  -1.42269362250086E-04  1.41996410677348E-01
 cg2d: Sum(rhs),rhsMax =  -1.43157390505312E-04  1.42004968299828E-01
 cg2d: Sum(rhs),rhsMax =  -1.44047833731465E-04  1.42013522174576E-01
 cg2d: Sum(rhs),rhsMax =  -1.44940670932240E-04  1.42022072283260E-01
 cg2d: Sum(rhs),rhsMax =  -1.45835881036507E-04  1.42030618607775E-01
 cg2d: Sum(rhs),rhsMax =  -1.46733443441339E-04  1.42039161130082E-01
 cg2d: Sum(rhs),rhsMax =  -1.47633337983267E-04  1.42047699832100E-01
 cg2d: Sum(rhs),rhsMax =  -1.48535544788014E-04  1.42056234695679E-01
 cg2d: Sum(rhs),rhsMax =  -1.49440044121906E-04  1.42064765702627E-01
 cg2d: Sum(rhs),rhsMax =  -1.50346816399655E-04  1.42073292834752E-01
 cg2d: Sum(rhs),rhsMax =  -1.51255842161359E-04  1.42081816073884E-01
 cg2d: Sum(rhs),rhsMax =  -1.52167101676159E-04  1.42090335401887E-01
 cg2d: Sum(rhs),rhsMax =  -1.53080575540825E-04  1.42098850800651E-01
 cg2d: Sum(rhs),rhsMax =  -1.53996244214571E-04  1.42107362252079E-01
 cg2d: Sum(rhs),rhsMax =  -1.54914088510263E-04  1.42115869738084E-01
 cg2d: Sum(rhs),rhsMax =  -1.55834089323443E-04  1.42124373240587E-01
 cg2d: Sum(rhs),rhsMax =  -1.56756227492252E-04  1.42132872741518E-01
 cg2d: Sum(rhs),rhsMax =  -1.57680484267209E-04  1.42141368222815E-01
 cg2d: Sum(rhs),rhsMax =  -1.58606840689800E-04  1.42149859666430E-01
 cg2d: Sum(rhs),rhsMax =  -1.59535278068776E-04  1.42158347054331E-01
 cg2d: Sum(rhs),rhsMax =  -1.60465777759268E-04  1.42166830368496E-01
 cg2d: Sum(rhs),rhsMax =  -1.61398321092745E-04  1.42175309590915E-01
 cg2d: Sum(rhs),rhsMax =  -1.62332889686672E-04  1.42183784703594E-01
 cg2d: Sum(rhs),rhsMax =  -1.63269465254160E-04  1.42192255688547E-01
 cg2d: Sum(rhs),rhsMax =  -1.64208029552660E-04  1.42200722527802E-01
 cg2d: Sum(rhs),rhsMax =  -1.65148564290247E-04  1.42209185203399E-01
 cg2d: Sum(rhs),rhsMax =  -1.66091051458823E-04  1.42217643697391E-01
 cg2d: Sum(rhs),rhsMax =  -1.67035473209122E-04  1.42226097991841E-01
 cg2d: Sum(rhs),rhsMax =  -1.67981811447947E-04  1.42234548068828E-01
 cg2d: Sum(rhs),rhsMax =  -1.68930048617989E-04  1.42242993910442E-01
 cg2d: Sum(rhs),rhsMax =  -1.69791170660512E-04  1.42251435488135E-01
 cg2d: Sum(rhs),rhsMax =  -1.70653849525419E-04  1.42259872826925E-01
 cg2d: Sum(rhs),rhsMax =  -1.71517990560345E-04  1.42268305858477E-01
 cg2d: Sum(rhs),rhsMax =  -1.72383582041477E-04  1.42276734582164E-01
 cg2d: Sum(rhs),rhsMax =  -1.73250600885807E-04  1.42285158981653E-01
 cg2d: Sum(rhs),rhsMax =  -1.74119029906859E-04  1.42293579039218E-01
 cg2d: Sum(rhs),rhsMax =  -1.74988856721132E-04  1.42301994737165E-01
 cg2d: Sum(rhs),rhsMax =  -1.75860069596571E-04  1.42310406057489E-01
 cg2d: Sum(rhs),rhsMax =  -1.76732654934684E-04  1.42318812982008E-01
 cg2d: Sum(rhs),rhsMax =  -1.77606597697980E-04  1.42327215492629E-01
 cg2d: Sum(rhs),rhsMax =  -1.78481881410309E-04  1.42335613571481E-01
 cg2d: Sum(rhs),rhsMax =  -1.79358489353088E-04  1.42344007200866E-01
 cg2d: Sum(rhs),rhsMax =  -1.80236405731810E-04  1.42352396363156E-01
 cg2d: Sum(rhs),rhsMax =  -1.81115614998865E-04  1.42360781040705E-01
 cg2d: Sum(rhs),rhsMax =  -1.81996102396117E-04  1.42369161215826E-01
 cg2d: Sum(rhs),rhsMax =  -1.82877852943037E-04  1.42377536870801E-01
 cg2d: Sum(rhs),rhsMax =  -1.83760852003741E-04  1.42385907987913E-01
 cg2d: Sum(rhs),rhsMax =  -1.84645084610391E-04  1.42394274549467E-01
 cg2d: Sum(rhs),rhsMax =  -1.85530535989118E-04  1.42402636537792E-01
 cg2d: Sum(rhs),rhsMax =  -1.86417191306059E-04  1.42410993935239E-01
(PID.TID 0000.0001)      cg2d_init_res =   8.14520497743512E-04
(PID.TID 0000.0001)      cg2d_iters(min,last) =      -1      72
(PID.TID 0000.0001)      cg2d_last_res =   9.05711245891518E-08
(PID.TID 0000.0001) // =======================================================
(PID.TID 0000.0001) // Begin MONITOR dynamic field statistics
(PID.TID 0000.0001) // =======================================================
(PID.TID 0000.0001) %MON time_tsnumber                =                 13248
(PID.TID 0000.0001) %MON time_secondsf                =   1.5897600000000E+07
(PID.TID 0000.0001) %MON dynstat_eta_max              =   4.5690950090952E-02
(PID.TID 0000.0001) %MON dynstat_eta_min              =  -2.4407336135851E-02
(PID.TID 0000.0001) %MON dynstat_eta_mean             =   1.3337930429698E-07
(PID.TID 0000.0001) %MON dynstat_eta_sd               =   1.8904781606082E-02
(PID.TID 0000.0001) %MON dynstat_eta_del2             =   1.7376646968003E-05
(PID.TID 0000.0001) %MON dynstat_uvel_max             =   3.0850672019000E-02
(PID.TID 0000.0001) %MON dynstat_uvel_min             =  -1.7122639729371E-02
(PID.TID 0000.0001) %MON dynstat_uvel_mean            =  -1.9630902814972E-07
(PID.TID 0000.0001) %MON dynstat_uvel_sd              =   7.4622932788938E-03
(PID.TID 0000.0001) %MON dynstat_uvel_del2            =   8.5921933795840E-06
(PID.TID 0000.0001) %MON dynstat_vvel_max             =   8.5155163396104E-02
(PID.TID 0000.0001) %MON dynstat_vvel_min             =  -2.8560668361154E-02
(PID.TID 0000.0001) %MON dynstat_vvel_mean            =  -1.4773547521932E-09
(PID.TID 0000.0001) %MON dynstat_vvel_sd              =   1.4646044046830E-02
(PID.TID 0000.0001) %MON dynstat_vvel_del2            =   7.2947754181298E-05
(PID.TID 0000.0001) %MON dynstat_wvel_max             =   9.7160948059536E-09
(PID.TID 0000.0001) %MON dynstat_wvel_min             =  -9.8192321634269E-09
(PID.TID 0000.0001) %MON dynstat_wvel_mean            =  -2.8730012344466E-21
(PID.TID 0000.0001) %MON dynstat_wvel_sd              =   4.7448593224126E-09
(PID.TID 0000.0001) %MON dynstat_wvel_del2            =   1.6584636586927E-12
(PID.TID 0000.0001) %MON dynstat_theta_max            =   2.0000000000000E+01
(PID.TID 0000.0001) %MON dynstat_theta_min            =   2.0000000000000E+01
(PID.TID 0000.0001) %MON dynstat_theta_mean           =   2.0000000000000E+01
(PID.TID 0000.0001) %MON dynstat_theta_sd             =   0.0000000000000E+00
(PID.TID 0000.0001) %MON dynstat_theta_del2           =   0.0000000000000E+00
(PID.TID 0000.0001) %MON dynstat_salt_max             =   3.0000000000000E+01
(PID.TID 0000.0001) %MON dynstat_salt_min             =   3.0000000000000E+01
(PID.TID 0000.0001) %MON dynstat_salt_mean            =   3.0000000000000E+01
(PID.TID 0000.0001) %MON dynstat_salt_sd              =   0.0000000000000E+00
(PID.TID 0000.0001) %MON dynstat_salt_del2            =   0.0000000000000E+00
(PID.TID 0000.0001) %MON trAdv_CFL_u_max              =   1.8509418834671E-03
(PID.TID 0000.0001) %MON trAdv_CFL_v_max              =   5.1090031492734E-03
(PID.TID 0000.0001) %MON trAdv_CFL_w_max              =   2.3333099895943E-09
(PID.TID 0000.0001) %MON advcfl_uvel_max              =   1.8510403211400E-03
(PID.TID 0000.0001) %MON advcfl_vvel_max              =   5.1093098037663E-03
(PID.TID 0000.0001) %MON advcfl_wvel_max              =   4.7132314384449E-09
(PID.TID 0000.0001) %MON advcfl_W_hf_max              =   0.0000000000000E+00
(PID.TID 0000.0001) %MON pe_b_mean                    =   3.5060034300721E-07
(PID.TID 0000.0001) %MON ke_max                       =   3.6238749373127E-03
(PID.TID 0000.0001) %MON ke_mean                      =   1.3284461005989E-04
(PID.TID 0000.0001) %MON ke_vol                       =   7.2000000000000E+15
(PID.TID 0000.0001) %MON vort_r_min                   =  -1.4878391218104E-06
(PID.TID 0000.0001) %MON vort_r_max                   =   2.3765301028101E-06
(PID.TID 0000.0001) %MON vort_a_mean                  =   1.0600000000000E-04
(PID.TID 0000.0001) %MON vort_a_sd                    =   3.5362602038300E-06
(PID.TID 0000.0001) %MON vort_p_mean                  =   1.1130000000000E-04
(PID.TID 0000.0001) %MON vort_p_sd                    =   4.1152992513773E-05
(PID.TID 0000.0001) %MON surfExpan_theta_mean         =  -5.7458590971591E-20
(PID.TID 0000.0001) %MON surfExpan_salt_mean          =  -8.6187570660614E-20
(PID.TID 0000.0001) // =======================================================
(PID.TID 0000.0001) // End MONITOR dynamic field statistics
(PID.TID 0000.0001) // =======================================================
 cg2d: Sum(rhs),rhsMax =  -1.87305035925798E-04  1.42419346724177E-01
 cg2d: Sum(rhs),rhsMax =  -1.88194055421887E-04  1.42427694886983E-01
 cg2d: Sum(rhs),rhsMax =  -1.89084235171237E-04  1.42436038406048E-01
 cg2d: Sum(rhs),rhsMax =  -1.89975561062666E-04  1.42444377263773E-01
 cg2d: Sum(rhs),rhsMax =  -1.90868018709308E-04  1.42452711442574E-01
 cg2d: Sum(rhs),rhsMax =  -1.91761594003957E-04  1.42461040924879E-01
 cg2d: Sum(rhs),rhsMax =  -1.92656272876028E-04  1.42469365693132E-01
 cg2d: Sum(rhs),rhsMax =  -1.93552041224837E-04  1.42477685729793E-01
 cg2d: Sum(rhs),rhsMax =  -1.94448885332727E-04  1.42486001017332E-01
 cg2d: Sum(rhs),rhsMax =  -1.95346791201392E-04  1.42494311538234E-01
 cg2d: Sum(rhs),rhsMax =  -1.96245745186845E-04  1.42502617274998E-01
 cg2d: Sum(rhs),rhsMax =  -1.97145733562657E-04  1.42510918210137E-01
 cg2d: Sum(rhs),rhsMax =  -1.98046742872577E-04  1.42519214326174E-01
 cg2d: Sum(rhs),rhsMax =  -1.98948759558452E-04  1.42527505605652E-01
 cg2d: Sum(rhs),rhsMax =  -1.99851770267980E-04  1.42535792031123E-01
 cg2d: Sum(rhs),rhsMax =  -2.00755761562190E-04  1.42544073585155E-01
 cg2d: Sum(rhs),rhsMax =  -2.01660720284252E-04  1.42552350250331E-01
 cg2d: Sum(rhs),rhsMax =  -2.02566633260723E-04  1.42560622009247E-01
 cg2d: Sum(rhs),rhsMax =  -2.03473487387701E-04  1.42568888844513E-01
 cg2d: Sum(rhs),rhsMax =  -2.04381269737895E-04  1.42577150738753E-01
 cg2d: Sum(rhs),rhsMax =  -2.05289967310885E-04  1.42585407674606E-01
 cg2d: Sum(rhs),rhsMax =  -2.06199567287063E-04  1.42593659634725E-01
 cg2d: Sum(rhs),rhsMax =  -2.07110056943978E-04  1.42601906601777E-01
 cg2d: Sum(rhs),rhsMax =  -2.08021423463369E-04  1.42610148558443E-01
 cg2d: Sum(rhs),rhsMax =  -2.08933654417997E-04  1.42618385487418E-01
 cg2d: Sum(rhs),rhsMax =  -2.09846737156719E-04  1.42626617371413E-01
 cg2d: Sum(rhs),rhsMax =  -2.10760659298644E-04  1.42634844193151E-01
 cg2d: Sum(rhs),rhsMax =  -2.11675408273298E-04  1.42643065935373E-01
 cg2d: Sum(rhs),rhsMax =  -2.12590971863769E-04  1.42651282580831E-01
 cg2d: Sum(rhs),rhsMax =  -2.13507337790975E-04  1.42659494112291E-01
 cg2d: Sum(rhs),rhsMax =  -2.14424493923391E-04  1.42667700512539E-01
 cg2d: Sum(rhs),rhsMax =  -2.15342428321604E-04  1.42675901764372E-01
 cg2d: Sum(rhs),rhsMax =  -2.16261128695766E-04  1.42684097850598E-01
 cg2d: Sum(rhs),rhsMax =  -2.17180583288440E-04  1.42692288754048E-01
 cg2d: Sum(rhs),rhsMax =  -2.18100780021419E-04  1.42700474457558E-01
 cg2d: Sum(rhs),rhsMax =  -2.19021707288050E-04  1.42708654943988E-01
 cg2d: Sum(rhs),rhsMax =  -2.19943353308479E-04  1.42716830196208E-01
 cg2d: Sum(rhs),rhsMax =  -2.20865706314710E-04  1.42725000197102E-01
 cg2d: Sum(rhs),rhsMax =  -2.21788754746511E-04  1.42733164929572E-01
 cg2d: Sum(rhs),rhsMax =  -2.22712487048902E-04  1.42741324376532E-01
 cg2d: Sum(rhs),rhsMax =  -2.23532498114838E-04  1.42749478667019E-01
 cg2d: Sum(rhs),rhsMax =  -2.24352852573107E-04  1.42757627488663E-01
 cg2d: Sum(rhs),rhsMax =  -2.25173593316912E-04  1.42765770983321E-01
 cg2d: Sum(rhs),rhsMax =  -2.25994672458135E-04  1.42773909119349E-01
 cg2d: Sum(rhs),rhsMax =  -2.26816074527638E-04  1.42782041886142E-01
 cg2d: Sum(rhs),rhsMax =  -2.27637789198452E-04  1.42790169265629E-01
 cg2d: Sum(rhs),rhsMax =  -2.28459810409083E-04  1.42798291240862E-01
 cg2d: Sum(rhs),rhsMax =  -2.29282132156981E-04  1.42806407794717E-01
 cg2d: Sum(rhs),rhsMax =  -2.30104746991337E-04  1.42814518910099E-01
 cg2d: Sum(rhs),rhsMax =  -2.30927645749605E-04  1.42822624569908E-01
 cg2d: Sum(rhs),rhsMax =  -2.31750818423300E-04  1.42830724757145E-01
 cg2d: Sum(rhs),rhsMax =  -2.32574254630242E-04  1.42838819454927E-01
 cg2d: Sum(rhs),rhsMax =  -2.33397944970420E-04  1.42846908646431E-01
 cg2d: Sum(rhs),rhsMax =  -2.34221879973288E-04  1.42854992314835E-01
 cg2d: Sum(rhs),rhsMax =  -2.35046051067508E-04  1.42863070443305E-01
 cg2d: Sum(rhs),rhsMax =  -2.35870449286523E-04  1.42871143015000E-01
 cg2d: Sum(rhs),rhsMax =  -2.36695066044587E-04  1.42879210013081E-01
 cg2d: Sum(rhs),rhsMax =  -2.37519892383313E-04  1.42887271420729E-01
 cg2d: Sum(rhs),rhsMax =  -2.38344919568794E-04  1.42895327221148E-01
 cg2d: Sum(rhs),rhsMax =  -2.39170138835062E-04  1.42903377397558E-01
 cg2d: Sum(rhs),rhsMax =  -2.39995541360154E-04  1.42911421933198E-01
 cg2d: Sum(rhs),rhsMax =  -2.40821118637962E-04  1.42919460811320E-01
 cg2d: Sum(rhs),rhsMax =  -2.41646862096202E-04  1.42927494015192E-01
 cg2d: Sum(rhs),rhsMax =  -2.42472763273904E-04  1.42935521528100E-01
 cg2d: Sum(rhs),rhsMax =  -2.43298813715105E-04  1.42943543333342E-01
 cg2d: Sum(rhs),rhsMax =  -2.44125005102397E-04  1.42951559414237E-01
 cg2d: Sum(rhs),rhsMax =  -2.44951329098523E-04  1.42959569754116E-01
 cg2d: Sum(rhs),rhsMax =  -2.45777777518671E-04  1.42967574336329E-01
 cg2d: Sum(rhs),rhsMax =  -2.46604342023660E-04  1.42975573144243E-01
 cg2d: Sum(rhs),rhsMax =  -2.47431014630281E-04  1.42983566161235E-01
 cg2d: Sum(rhs),rhsMax =  -2.48257787186329E-04  1.42991553370706E-01
 cg2d: Sum(rhs),rhsMax =  -2.49084651665810E-04  1.42999534756063E-01
(PID.TID 0000.0001)      cg2d_init_res =   8.02496718066269E-04
(PID.TID 0000.0001)      cg2d_iters(min,last) =      -1      73
(PID.TID 0000.0001)      cg2d_last_res =   9.87649960098885E-08
(PID.TID 0000.0001) // =======================================================
(PID.TID 0000.0001) // Begin MONITOR dynamic field statistics
(PID.TID 0000.0001) // =======================================================
(PID.TID 0000.0001) %MON time_tsnumber                =                 13320
(PID.TID 0000.0001) %MON time_secondsf                =   1.5984000000000E+07
(PID.TID 0000.0001) %MON dynstat_eta_max              =   4.6205183637686E-02
(PID.TID 0000.0001) %MON dynstat_eta_min              =  -2.4284142699652E-02
(PID.TID 0000.0001) %MON dynstat_eta_mean             =   1.7869617861375E-07
(PID.TID 0000.0001) %MON dynstat_eta_sd               =   1.9052464805747E-02
(PID.TID 0000.0001) %MON dynstat_eta_del2             =   1.7398266271095E-05
(PID.TID 0000.0001) %MON dynstat_uvel_max             =   3.0968936539684E-02
(PID.TID 0000.0001) %MON dynstat_uvel_min             =  -1.7270473253948E-02
(PID.TID 0000.0001) %MON dynstat_uvel_mean            =  -1.8217656250299E-07
(PID.TID 0000.0001) %MON dynstat_uvel_sd              =   7.4646261424873E-03
(PID.TID 0000.0001) %MON dynstat_uvel_del2            =   8.5827422659745E-06
(PID.TID 0000.0001) %MON dynstat_vvel_max             =   8.5517770733236E-02
(PID.TID 0000.0001) %MON dynstat_vvel_min             =  -2.8420293992146E-02
(PID.TID 0000.0001) %MON dynstat_vvel_mean            =  -4.4203887873169E-10
(PID.TID 0000.0001) %MON dynstat_vvel_sd              =   1.4716017243899E-02
(PID.TID 0000.0001) %MON dynstat_vvel_del2            =   7.3166269567869E-05
(PID.TID 0000.0001) %MON dynstat_wvel_max             =   9.2410920697148E-09
(PID.TID 0000.0001) %MON dynstat_wvel_min             =  -1.0154046034731E-08
(PID.TID 0000.0001) %MON dynstat_wvel_mean            =  -1.6374079652653E-21
(PID.TID 0000.0001) %MON dynstat_wvel_sd              =   4.6954678168265E-09
(PID.TID 0000.0001) %MON dynstat_wvel_del2            =   1.6548302941476E-12
(PID.TID 0000.0001) %MON dynstat_theta_max            =   2.0000000000000E+01
(PID.TID 0000.0001) %MON dynstat_theta_min            =   2.0000000000000E+01
(PID.TID 0000.0001) %MON dynstat_theta_mean           =   2.0000000000000E+01
(PID.TID 0000.0001) %MON dynstat_theta_sd             =   0.0000000000000E+00
(PID.TID 0000.0001) %MON dynstat_theta_del2           =   0.0000000000000E+00
(PID.TID 0000.0001) %MON dynstat_salt_max             =   3.0000000000000E+01
(PID.TID 0000.0001) %MON dynstat_salt_min             =   3.0000000000000E+01
(PID.TID 0000.0001) %MON dynstat_salt_mean            =   3.0000000000000E+01
(PID.TID 0000.0001) %MON dynstat_salt_sd              =   0.0000000000000E+00
(PID.TID 0000.0001) %MON dynstat_salt_del2            =   0.0000000000000E+00
(PID.TID 0000.0001) %MON trAdv_CFL_u_max              =   1.8580377121682E-03
(PID.TID 0000.0001) %MON trAdv_CFL_v_max              =   5.1307689838186E-03
(PID.TID 0000.0001) %MON trAdv_CFL_w_max              =   2.2192723258515E-09
(PID.TID 0000.0001) %MON advcfl_uvel_max              =   1.8581361923810E-03
(PID.TID 0000.0001) %MON advcfl_vvel_max              =   5.1310662439942E-03
(PID.TID 0000.0001) %MON advcfl_wvel_max              =   4.8739420966711E-09
(PID.TID 0000.0001) %MON advcfl_W_hf_max              =   0.0000000000000E+00
(PID.TID 0000.0001) %MON pe_b_mean                    =   3.5609948331724E-07
(PID.TID 0000.0001) %MON ke_max                       =   3.6541337665478E-03
(PID.TID 0000.0001) %MON ke_mean                      =   1.3387188844316E-04
(PID.TID 0000.0001) %MON ke_vol                       =   7.2000000000000E+15
(PID.TID 0000.0001) %MON vort_r_min                   =  -1.4895141894666E-06
(PID.TID 0000.0001) %MON vort_r_max                   =   2.3859765813645E-06
(PID.TID 0000.0001) %MON vort_a_mean                  =   1.0600000000000E-04
(PID.TID 0000.0001) %MON vort_a_sd                    =   3.5363679162361E-06
(PID.TID 0000.0001) %MON vort_p_mean                  =   1.1130000000000E-04
(PID.TID 0000.0001) %MON vort_p_sd                    =   4.1152999435542E-05
(PID.TID 0000.0001) %MON surfExpan_theta_mean         =  -3.2752309506476E-20
(PID.TID 0000.0001) %MON surfExpan_salt_mean          =  -4.9128780056486E-20
(PID.TID 0000.0001) // =======================================================
(PID.TID 0000.0001) // End MONITOR dynamic field statistics
(PID.TID 0000.0001) // =======================================================
 cg2d: Sum(rhs),rhsMax =  -2.49911600130558E-04  1.43007510300738E-01
 cg2d: Sum(rhs),rhsMax =  -2.50738624520219E-04  1.43015479988174E-01
 cg2d: Sum(rhs),rhsMax =  -2.51565717104779E-04  1.43023443801834E-01
 cg2d: Sum(rhs),rhsMax =  -2.52392870101147E-04  1.43031401725194E-01
 cg2d: Sum(rhs),rhsMax =  -2.53220075624665E-04  1.43039353741747E-01
 cg2d: Sum(rhs),rhsMax =  -2.54047326068622E-04  1.43047299835007E-01
 cg2d: Sum(rhs),rhsMax =  -2.54874613731450E-04  1.43055239988497E-01
 cg2d: Sum(rhs),rhsMax =  -2.55603446619225E-04  1.43063173832233E-01
 cg2d: Sum(rhs),rhsMax =  -2.56332202265171E-04  1.43071102056381E-01
 cg2d: Sum(rhs),rhsMax =  -2.57060776873077E-04  1.43079024298804E-01
 cg2d: Sum(rhs),rhsMax =  -2.57789189341377E-04  1.43086940531117E-01
 cg2d: Sum(rhs),rhsMax =  -2.58517433723529E-04  1.43094850741881E-01
 cg2d: Sum(rhs),rhsMax =  -2.59245504205793E-04  1.43102754914851E-01
 cg2d: Sum(rhs),rhsMax =  -2.59973396321840E-04  1.43110653033285E-01
 cg2d: Sum(rhs),rhsMax =  -2.60701104979326E-04  1.43118545080795E-01
 cg2d: Sum(rhs),rhsMax =  -2.61428625039746E-04  1.43126431041088E-01
 cg2d: Sum(rhs),rhsMax =  -2.62155951066444E-04  1.43134310897819E-01
 cg2d: Sum(rhs),rhsMax =  -2.62883077142688E-04  1.43142184634642E-01
 cg2d: Sum(rhs),rhsMax =  -2.63609997672192E-04  1.43150052235262E-01
 cg2d: Sum(rhs),rhsMax =  -2.64336707015563E-04  1.43157913683432E-01
 cg2d: Sum(rhs),rhsMax =  -2.65063199823569E-04  1.43165768962931E-01
 cg2d: Sum(rhs),rhsMax =  -2.65789470663504E-04  1.43173618057555E-01
 cg2d: Sum(rhs),rhsMax =  -2.66515514360870E-04  1.43181460951105E-01
 cg2d: Sum(rhs),rhsMax =  -2.67241325619696E-04  1.43189297627397E-01
 cg2d: Sum(rhs),rhsMax =  -2.67966899331821E-04  1.43197128070256E-01
 cg2d: Sum(rhs),rhsMax =  -2.68692230192624E-04  1.43204952263527E-01
 cg2d: Sum(rhs),rhsMax =  -2.69417313054098E-04  1.43212770191067E-01
 cg2d: Sum(rhs),rhsMax =  -2.70142142760480E-04  1.43220581836752E-01
 cg2d: Sum(rhs),rhsMax =  -2.70866714328844E-04  1.43228387184475E-01
 cg2d: Sum(rhs),rhsMax =  -2.71591022660899E-04  1.43236186218150E-01
 cg2d: Sum(rhs),rhsMax =  -2.72315062944642E-04  1.43243978921703E-01
 cg2d: Sum(rhs),rhsMax =  -2.73038830072961E-04  1.43251765279086E-01
 cg2d: Sum(rhs),rhsMax =  -2.73762319209725E-04  1.43259545274265E-01
 cg2d: Sum(rhs),rhsMax =  -2.74485525523549E-04  1.43267318891222E-01
 cg2d: Sum(rhs),rhsMax =  -2.75208444075302E-04  1.43275086113959E-01
 cg2d: Sum(rhs),rhsMax =  -2.75931070158609E-04  1.43282846926496E-01
 cg2d: Sum(rhs),rhsMax =  -2.76653399130377E-04  1.43290601312866E-01
 cg2d: Sum(rhs),rhsMax =  -2.77375426068987E-04  1.43298349257120E-01
 cg2d: Sum(rhs),rhsMax =  -2.78097146455805E-04  1.43306090743329E-01
 cg2d: Sum(rhs),rhsMax =  -2.78818555586710E-04  1.43313825755579E-01
 cg2d: Sum(rhs),rhsMax =  -2.79539648904517E-04  1.43321554277974E-01
 cg2d: Sum(rhs),rhsMax =  -2.80260421889574E-04  1.43329276294639E-01
 cg2d: Sum(rhs),rhsMax =  -2.80980869923625E-04  1.43336991789712E-01
 cg2d: Sum(rhs),rhsMax =  -2.81700988663573E-04  1.43344700747352E-01
 cg2d: Sum(rhs),rhsMax =  -2.82420773552592E-04  1.43352403151736E-01
 cg2d: Sum(rhs),rhsMax =  -2.83140220168198E-04  1.43360098987058E-01
 cg2d: Sum(rhs),rhsMax =  -2.83859324185009E-04  1.43367788237526E-01
 cg2d: Sum(rhs),rhsMax =  -2.84578081189918E-04  1.43375470887372E-01
 cg2d: Sum(rhs),rhsMax =  -2.85296486866520E-04  1.43383146920844E-01
 cg2d: Sum(rhs),rhsMax =  -2.86014536924219E-04  1.43390816322204E-01
 cg2d: Sum(rhs),rhsMax =  -2.86732227222948E-04  1.43398479075738E-01
 cg2d: Sum(rhs),rhsMax =  -2.87449553482958E-04  1.43406135165744E-01
 cg2d: Sum(rhs),rhsMax =  -2.88166511583738E-04  1.43413784576543E-01
 cg2d: Sum(rhs),rhsMax =  -2.88883097261041E-04  1.43421427292470E-01
 cg2d: Sum(rhs),rhsMax =  -2.89599306593974E-04  1.43429063297882E-01
 cg2d: Sum(rhs),rhsMax =  -2.90315135271662E-04  1.43436692577152E-01
 cg2d: Sum(rhs),rhsMax =  -2.91030579362548E-04  1.43444315114670E-01
 cg2d: Sum(rhs),rhsMax =  -2.91745634858549E-04  1.43451930894847E-01
 cg2d: Sum(rhs),rhsMax =  -2.92460297750701E-04  1.43459539902111E-01
 cg2d: Sum(rhs),rhsMax =  -2.93174564060407E-04  1.43467142120906E-01
 cg2d: Sum(rhs),rhsMax =  -2.93888429874991E-04  1.43474737535698E-01
 cg2d: Sum(rhs),rhsMax =  -2.94601891261018E-04  1.43482326130968E-01
 cg2d: Sum(rhs),rhsMax =  -2.95314944391167E-04  1.43489907891219E-01
 cg2d: Sum(rhs),rhsMax =  -2.96027585450475E-04  1.43497482800970E-01
 cg2d: Sum(rhs),rhsMax =  -2.96739810629319E-04  1.43505050844759E-01
 cg2d: Sum(rhs),rhsMax =  -2.97451616078173E-04  1.43512612007140E-01
 cg2d: Sum(rhs),rhsMax =  -2.98162998101179E-04  1.43520166272689E-01
 cg2d: Sum(rhs),rhsMax =  -2.98873952991584E-04  1.43527713626001E-01
 cg2d: Sum(rhs),rhsMax =  -2.99584476969162E-04  1.43535254051686E-01
 cg2d: Sum(rhs),rhsMax =  -3.00294566360578E-04  1.43542787534374E-01
 cg2d: Sum(rhs),rhsMax =  -3.01004217603611E-04  1.43550314058716E-01
 cg2d: Sum(rhs),rhsMax =  -3.01713427157745E-04  1.43557833609378E-01
(PID.TID 0000.0001)      cg2d_init_res =   7.89935746506892E-04
(PID.TID 0000.0001)      cg2d_iters(min,last) =      -1      74
(PID.TID 0000.0001)      cg2d_last_res =   9.95062632592297E-08
(PID.TID 0000.0001) // =======================================================
(PID.TID 0000.0001) // Begin MONITOR dynamic field statistics
(PID.TID 0000.0001) // =======================================================
(PID.TID 0000.0001) %MON time_tsnumber                =                 13392
(PID.TID 0000.0001) %MON time_secondsf                =   1.6070400000000E+07
(PID.TID 0000.0001) %MON dynstat_eta_max              =   4.6790519551076E-02
(PID.TID 0000.0001) %MON dynstat_eta_min              =  -2.4127939302122E-02
(PID.TID 0000.0001) %MON dynstat_eta_mean             =   2.1708673292285E-07
(PID.TID 0000.0001) %MON dynstat_eta_sd               =   1.9173713144485E-02
(PID.TID 0000.0001) %MON dynstat_eta_del2             =   1.7423095140114E-05
(PID.TID 0000.0001) %MON dynstat_uvel_max             =   3.1086568095091E-02
(PID.TID 0000.0001) %MON dynstat_uvel_min             =  -1.7393200974597E-02
(PID.TID 0000.0001) %MON dynstat_uvel_mean            =  -1.6602562075883E-07
(PID.TID 0000.0001) %MON dynstat_uvel_sd              =   7.4575473934454E-03
(PID.TID 0000.0001) %MON dynstat_uvel_del2            =   8.5673979042842E-06
(PID.TID 0000.0001) %MON dynstat_vvel_max             =   8.5867088755934E-02
(PID.TID 0000.0001) %MON dynstat_vvel_min             =  -2.8303805732819E-02
(PID.TID 0000.0001) %MON dynstat_vvel_mean            =   5.3405506997575E-10
(PID.TID 0000.0001) %MON dynstat_vvel_sd              =   1.4784498084411E-02
(PID.TID 0000.0001) %MON dynstat_vvel_del2            =   7.3388721740433E-05
(PID.TID 0000.0001) %MON dynstat_wvel_max             =   8.7713616048859E-09
(PID.TID 0000.0001) %MON dynstat_wvel_min             =  -1.0473667864862E-08
(PID.TID 0000.0001) %MON dynstat_wvel_mean            =   2.5825506276710E-22
(PID.TID 0000.0001) %MON dynstat_wvel_sd              =   4.6483208439830E-09
(PID.TID 0000.0001) %MON dynstat_wvel_del2            =   1.6549968035571E-12
(PID.TID 0000.0001) %MON dynstat_theta_max            =   2.0000000000000E+01
(PID.TID 0000.0001) %MON dynstat_theta_min            =   2.0000000000000E+01
(PID.TID 0000.0001) %MON dynstat_theta_mean           =   2.0000000000000E+01
(PID.TID 0000.0001) %MON dynstat_theta_sd             =   0.0000000000000E+00
(PID.TID 0000.0001) %MON dynstat_theta_del2           =   0.0000000000000E+00
(PID.TID 0000.0001) %MON dynstat_salt_max             =   3.0000000000000E+01
(PID.TID 0000.0001) %MON dynstat_salt_min             =   3.0000000000000E+01
(PID.TID 0000.0001) %MON dynstat_salt_mean            =   3.0000000000000E+01
(PID.TID 0000.0001) %MON dynstat_salt_sd              =   0.0000000000000E+00
(PID.TID 0000.0001) %MON dynstat_salt_del2            =   0.0000000000000E+00
(PID.TID 0000.0001) %MON trAdv_CFL_u_max              =   1.8650966818703E-03
(PID.TID 0000.0001) %MON trAdv_CFL_v_max              =   5.1517407456027E-03
(PID.TID 0000.0001) %MON trAdv_CFL_w_max              =   2.1068693567009E-09
(PID.TID 0000.0001) %MON advcfl_uvel_max              =   1.8651940857055E-03
(PID.TID 0000.0001) %MON advcfl_vvel_max              =   5.1520253253560E-03
(PID.TID 0000.0001) %MON advcfl_wvel_max              =   5.0273605751339E-09
(PID.TID 0000.0001) %MON advcfl_W_hf_max              =   0.0000000000000E+00
(PID.TID 0000.0001) %MON pe_b_mean                    =   3.6064628155403E-07
(PID.TID 0000.0001) %MON ke_max                       =   3.6833787637437E-03
(PID.TID 0000.0001) %MON ke_mean                      =   1.3481322840749E-04
(PID.TID 0000.0001) %MON ke_vol                       =   7.2000000000000E+15
(PID.TID 0000.0001) %MON vort_r_min                   =  -1.4913524897748E-06
(PID.TID 0000.0001) %MON vort_r_max                   =   2.3947345465039E-06
(PID.TID 0000.0001) %MON vort_a_mean                  =   1.0600000000000E-04
(PID.TID 0000.0001) %MON vort_a_sd                    =   3.5364754798325E-06
(PID.TID 0000.0001) %MON vort_p_mean                  =   1.1130000000000E-04
(PID.TID 0000.0001) %MON vort_p_sd                    =   4.1152993391189E-05
(PID.TID 0000.0001) %MON surfExpan_theta_mean         =   5.1647772478544E-21
(PID.TID 0000.0001) %MON surfExpan_salt_mean          =   7.7472842955710E-21
(PID.TID 0000.0001) // =======================================================
(PID.TID 0000.0001) // End MONITOR dynamic field statistics
(PID.TID 0000.0001) // =======================================================
 cg2d: Sum(rhs),rhsMax =  -3.02422191268283E-04  1.43565346171047E-01
 cg2d: Sum(rhs),rhsMax =  -3.03130506575135E-04  1.43572851728428E-01
 cg2d: Sum(rhs),rhsMax =  -3.03838369256828E-04  1.43580350266245E-01
 cg2d: Sum(rhs),rhsMax =  -3.04545775922407E-04  1.43587841769241E-01
 cg2d: Sum(rhs),rhsMax =  -3.05252723237149E-04  1.43595326222176E-01
 cg2d: Sum(rhs),rhsMax =  -3.05861822616979E-04  1.43602803976881E-01
 cg2d: Sum(rhs),rhsMax =  -3.06470362441986E-04  1.43610274291379E-01
 cg2d: Sum(rhs),rhsMax =  -3.07078423561223E-04  1.43617737511093E-01
 cg2d: Sum(rhs),rhsMax =  -3.07685987036628E-04  1.43625193615118E-01
 cg2d: Sum(rhs),rhsMax =  -3.08293058547721E-04  1.43632642594619E-01
 cg2d: Sum(rhs),rhsMax =  -3.08899636431961E-04  1.43640084432950E-01
 cg2d: Sum(rhs),rhsMax =  -3.09505716136295E-04  1.43647519114821E-01
 cg2d: Sum(rhs),rhsMax =  -3.10111292744768E-04  1.43654946625150E-01
 cg2d: Sum(rhs),rhsMax =  -3.10716362738924E-04  1.43662366949143E-01
 cg2d: Sum(rhs),rhsMax =  -3.11320924029497E-04  1.43669780071846E-01
 cg2d: Sum(rhs),rhsMax =  -3.11924975324647E-04  1.43677185978198E-01
 cg2d: Sum(rhs),rhsMax =  -3.12528515468005E-04  1.43684584653118E-01
 cg2d: Sum(rhs),rhsMax =  -3.13131542954817E-04  1.43691976081570E-01
 cg2d: Sum(rhs),rhsMax =  -3.13734055963585E-04  1.43699360248566E-01
 cg2d: Sum(rhs),rhsMax =  -3.14336052466090E-04  1.43706737139169E-01
 cg2d: Sum(rhs),rhsMax =  -3.14937530506099E-04  1.43714106738468E-01
 cg2d: Sum(rhs),rhsMax =  -3.15538488054354E-04  1.43721469031568E-01
 cg2d: Sum(rhs),rhsMax =  -3.16138923400395E-04  1.43728824003584E-01
 cg2d: Sum(rhs),rhsMax =  -3.16738834743397E-04  1.43736171639643E-01
 cg2d: Sum(rhs),rhsMax =  -3.17338220293137E-04  1.43743511924880E-01
 cg2d: Sum(rhs),rhsMax =  -3.17937078536655E-04  1.43750844844456E-01
 cg2d: Sum(rhs),rhsMax =  -3.18535407412578E-04  1.43758170383544E-01
 cg2d: Sum(rhs),rhsMax =  -3.19133205462886E-04  1.43765488527348E-01
 cg2d: Sum(rhs),rhsMax =  -3.19730470951237E-04  1.43772799261089E-01
 cg2d: Sum(rhs),rhsMax =  -3.20327201997262E-04  1.43780102570011E-01
 cg2d: Sum(rhs),rhsMax =  -3.20923397138534E-04  1.43787398439381E-01
 cg2d: Sum(rhs),rhsMax =  -3.21519054709540E-04  1.43794686854482E-01
 cg2d: Sum(rhs),rhsMax =  -3.22114172938451E-04  1.43801967800616E-01
 cg2d: Sum(rhs),rhsMax =  -3.22708750308367E-04  1.43809241263105E-01
 cg2d: Sum(rhs),rhsMax =  -3.23302785166553E-04  1.43816507227292E-01
 cg2d: Sum(rhs),rhsMax =  -3.23896275743090E-04  1.43823765678535E-01
 cg2d: Sum(rhs),rhsMax =  -3.24489220801957E-04  1.43831016602215E-01
 cg2d: Sum(rhs),rhsMax =  -3.25081618594822E-04  1.43838259983732E-01
 cg2d: Sum(rhs),rhsMax =  -3.25673467653848E-04  1.43845495808507E-01
 cg2d: Sum(rhs),rhsMax =  -3.26264766377662E-04  1.43852724061981E-01
 cg2d: Sum(rhs),rhsMax =  -3.26855513192888E-04  1.43859944729614E-01
 cg2d: Sum(rhs),rhsMax =  -3.27445706648075E-04  1.43867157796887E-01
 cg2d: Sum(rhs),rhsMax =  -3.28035345220342E-04  1.43874363249301E-01
 cg2d: Sum(rhs),rhsMax =  -3.28624427490706E-04  1.43881561072377E-01
 cg2d: Sum(rhs),rhsMax =  -3.29212951904392E-04  1.43888751251657E-01
 cg2d: Sum(rhs),rhsMax =  -3.29800917127532E-04  1.43895933772700E-01
 cg2d: Sum(rhs),rhsMax =  -3.30388321567957E-04  1.43903108621088E-01
 cg2d: Sum(rhs),rhsMax =  -3.30975164020871E-04  1.43910275782423E-01
 cg2d: Sum(rhs),rhsMax =  -3.31561442814703E-04  1.43917435242326E-01
 cg2d: Sum(rhs),rhsMax =  -3.32147156698471E-04  1.43924586986439E-01
 cg2d: Sum(rhs),rhsMax =  -3.32732304276528E-04  1.43931731000424E-01
 cg2d: Sum(rhs),rhsMax =  -3.33316884094017E-04  1.43938867269962E-01
 cg2d: Sum(rhs),rhsMax =  -3.33900894842045E-04  1.43945995780759E-01
 cg2d: Sum(rhs),rhsMax =  -3.34484335086278E-04  1.43953116518535E-01
 cg2d: Sum(rhs),rhsMax =  -3.35067203521520E-04  1.43960229469036E-01
 cg2d: Sum(rhs),rhsMax =  -3.35649499000572E-04  1.43967334618026E-01
 cg2d: Sum(rhs),rhsMax =  -3.36231219958252E-04  1.43974431951287E-01
 cg2d: Sum(rhs),rhsMax =  -3.36812365216007E-04  1.43981521454626E-01
 cg2d: Sum(rhs),rhsMax =  -3.37392933403919E-04  1.43988603113868E-01
 cg2d: Sum(rhs),rhsMax =  -3.37972923363008E-04  1.43995676914860E-01
 cg2d: Sum(rhs),rhsMax =  -3.38552333608565E-04  1.44002742843468E-01
 cg2d: Sum(rhs),rhsMax =  -3.39131163120575E-04  1.44009800885578E-01
 cg2d: Sum(rhs),rhsMax =  -3.39709410429706E-04  1.44016851027100E-01
 cg2d: Sum(rhs),rhsMax =  -3.40287074441024E-04  1.44023893253961E-01
 cg2d: Sum(rhs),rhsMax =  -3.40864153873330E-04  1.44030927552112E-01
 cg2d: Sum(rhs),rhsMax =  -3.41440647498636E-04  1.44037953907521E-01
 cg2d: Sum(rhs),rhsMax =  -3.42016554014292E-04  1.44044972306181E-01
 cg2d: Sum(rhs),rhsMax =  -3.42591872328886E-04  1.44051982734103E-01
 cg2d: Sum(rhs),rhsMax =  -3.43166601236550E-04  1.44058985177318E-01
 cg2d: Sum(rhs),rhsMax =  -3.43740739552216E-04  1.44065979621880E-01
 cg2d: Sum(rhs),rhsMax =  -3.44314286122274E-04  1.44072966053865E-01
 cg2d: Sum(rhs),rhsMax =  -3.44887239796090E-04  1.44079944459367E-01
(PID.TID 0000.0001)      cg2d_init_res =   7.77035958987593E-04
(PID.TID 0000.0001)      cg2d_iters(min,last) =      -1      75
(PID.TID 0000.0001)      cg2d_last_res =   9.10058018810240E-08
(PID.TID 0000.0001) // =======================================================
(PID.TID 0000.0001) // Begin MONITOR dynamic field statistics
(PID.TID 0000.0001) // =======================================================
(PID.TID 0000.0001) %MON time_tsnumber                =                 13464
(PID.TID 0000.0001) %MON time_secondsf                =   1.6156800000000E+07
(PID.TID 0000.0001) %MON dynstat_eta_max              =   4.7377469649164E-02
(PID.TID 0000.0001) %MON dynstat_eta_min              =  -2.3941436303732E-02
(PID.TID 0000.0001) %MON dynstat_eta_mean             =   2.4888103933719E-07
(PID.TID 0000.0001) %MON dynstat_eta_sd               =   1.9267876961362E-02
(PID.TID 0000.0001) %MON dynstat_eta_del2             =   1.7450806658237E-05
(PID.TID 0000.0001) %MON dynstat_uvel_max             =   3.1202246979239E-02
(PID.TID 0000.0001) %MON dynstat_uvel_min             =  -1.7496827788000E-02
(PID.TID 0000.0001) %MON dynstat_uvel_mean            =  -1.4808983133395E-07
(PID.TID 0000.0001) %MON dynstat_uvel_sd              =   7.4414102459167E-03
(PID.TID 0000.0001) %MON dynstat_uvel_del2            =   8.5467419023795E-06
(PID.TID 0000.0001) %MON dynstat_vvel_max             =   8.6199285806213E-02
(PID.TID 0000.0001) %MON dynstat_vvel_min             =  -2.8211903658473E-02
(PID.TID 0000.0001) %MON dynstat_vvel_mean            =   1.4400397465935E-09
(PID.TID 0000.0001) %MON dynstat_vvel_sd              =   1.4850715218437E-02
(PID.TID 0000.0001) %MON dynstat_vvel_del2            =   7.3612511095630E-05
(PID.TID 0000.0001) %MON dynstat_wvel_max             =   8.2970626623137E-09
(PID.TID 0000.0001) %MON dynstat_wvel_min             =  -1.0769390828209E-08
(PID.TID 0000.0001) %MON dynstat_wvel_mean            =  -7.0669098780248E-21
(PID.TID 0000.0001) %MON dynstat_wvel_sd              =   4.6042027145245E-09
(PID.TID 0000.0001) %MON dynstat_wvel_del2            =   1.6529874862389E-12
(PID.TID 0000.0001) %MON dynstat_theta_max            =   2.0000000000000E+01
(PID.TID 0000.0001) %MON dynstat_theta_min            =   2.0000000000000E+01
(PID.TID 0000.0001) %MON dynstat_theta_mean           =   2.0000000000000E+01
(PID.TID 0000.0001) %MON dynstat_theta_sd             =   0.0000000000000E+00
(PID.TID 0000.0001) %MON dynstat_theta_del2           =   0.0000000000000E+00
(PID.TID 0000.0001) %MON dynstat_salt_max             =   3.0000000000000E+01
(PID.TID 0000.0001) %MON dynstat_salt_min             =   3.0000000000000E+01
(PID.TID 0000.0001) %MON dynstat_salt_mean            =   3.0000000000000E+01
(PID.TID 0000.0001) %MON dynstat_salt_sd              =   0.0000000000000E+00
(PID.TID 0000.0001) %MON dynstat_salt_del2            =   0.0000000000000E+00
(PID.TID 0000.0001) %MON trAdv_CFL_u_max              =   1.8720395703776E-03
(PID.TID 0000.0001) %MON trAdv_CFL_v_max              =   5.1716883455454E-03
(PID.TID 0000.0001) %MON trAdv_CFL_w_max              =   1.9929612579290E-09
(PID.TID 0000.0001) %MON advcfl_uvel_max              =   1.8721348187543E-03
(PID.TID 0000.0001) %MON advcfl_vvel_max              =   5.1719571483728E-03
(PID.TID 0000.0001) %MON advcfl_wvel_max              =   5.1693075975403E-09
(PID.TID 0000.0001) %MON advcfl_W_hf_max              =   0.0000000000000E+00
(PID.TID 0000.0001) %MON pe_b_mean                    =   3.6419731208957E-07
(PID.TID 0000.0001) %MON ke_max                       =   3.7112665454118E-03
(PID.TID 0000.0001) %MON ke_mean                      =   1.3565984507646E-04
(PID.TID 0000.0001) %MON ke_vol                       =   7.2000000000000E+15
(PID.TID 0000.0001) %MON vort_r_min                   =  -1.4933316440616E-06
(PID.TID 0000.0001) %MON vort_r_max                   =   2.4027095698422E-06
(PID.TID 0000.0001) %MON vort_a_mean                  =   1.0600000000000E-04
(PID.TID 0000.0001) %MON vort_a_sd                    =   3.5365816911238E-06
(PID.TID 0000.0001) %MON vort_p_mean                  =   1.1130000000000E-04
(PID.TID 0000.0001) %MON vort_p_sd                    =   4.1152974950854E-05
(PID.TID 0000.0001) %MON surfExpan_theta_mean         =  -1.4134564876558E-19
(PID.TID 0000.0001) %MON surfExpan_salt_mean          =  -2.1201910104117E-19
(PID.TID 0000.0001) // =======================================================
(PID.TID 0000.0001) // End MONITOR dynamic field statistics
(PID.TID 0000.0001) // =======================================================
 cg2d: Sum(rhs),rhsMax =  -3.45459599377744E-04  1.44086914824501E-01
 cg2d: Sum(rhs),rhsMax =  -3.46031363742247E-04  1.44093877135404E-01
 cg2d: Sum(rhs),rhsMax =  -3.46602531756114E-04  1.44100831378236E-01
 cg2d: Sum(rhs),rhsMax =  -3.47173102325155E-04  1.44107777539174E-01
 cg2d: Sum(rhs),rhsMax =  -3.47743074271228E-04  1.44114715604420E-01
 cg2d: Sum(rhs),rhsMax =  -3.48312446467011E-04  1.44121645560194E-01
 cg2d: Sum(rhs),rhsMax =  -3.48881217978043E-04  1.44128567392738E-01
 cg2d: Sum(rhs),rhsMax =  -3.49449387550506E-04  1.44135481088316E-01
 cg2d: Sum(rhs),rhsMax =  -3.50016954121227E-04  1.44142386633213E-01
 cg2d: Sum(rhs),rhsMax =  -3.50583916687076E-04  1.44149284013734E-01
 cg2d: Sum(rhs),rhsMax =  -3.51150274156145E-04  1.44156173216207E-01
 cg2d: Sum(rhs),rhsMax =  -3.51716025481411E-04  1.44163054226980E-01
 cg2d: Sum(rhs),rhsMax =  -3.52281169517253E-04  1.44169927032422E-01
 cg2d: Sum(rhs),rhsMax =  -3.52845705368599E-04  1.44176791618925E-01
 cg2d: Sum(rhs),rhsMax =  -3.53409631909298E-04  1.44183647972901E-01
 cg2d: Sum(rhs),rhsMax =  -3.53972948210581E-04  1.44190496080783E-01
 cg2d: Sum(rhs),rhsMax =  -3.54535653171760E-04  1.44197335929026E-01
 cg2d: Sum(rhs),rhsMax =  -3.55097745829816E-04  1.44204167504109E-01
 cg2d: Sum(rhs),rhsMax =  -3.55659225164263E-04  1.44210990792526E-01
 cg2d: Sum(rhs),rhsMax =  -3.56220090204237E-04  1.44217805780800E-01
 cg2d: Sum(rhs),rhsMax =  -3.56780339960646E-04  1.44224612455470E-01
 cg2d: Sum(rhs),rhsMax =  -3.57339973416763E-04  1.44231410803098E-01
 cg2d: Sum(rhs),rhsMax =  -3.57898989657412E-04  1.44238200810270E-01
 cg2d: Sum(rhs),rhsMax =  -3.58457387661926E-04  1.44244982463590E-01
 cg2d: Sum(rhs),rhsMax =  -3.59015166487810E-04  1.44251755749688E-01
 cg2d: Sum(rhs),rhsMax =  -3.59572325222956E-04  1.44258520655209E-01
 cg2d: Sum(rhs),rhsMax =  -3.60128862883127E-04  1.44265277166826E-01
 cg2d: Sum(rhs),rhsMax =  -3.60684778607875E-04  1.44272025271232E-01
 cg2d: Sum(rhs),rhsMax =  -3.61240071406134E-04  1.44278764955139E-01
 cg2d: Sum(rhs),rhsMax =  -3.61794740377792E-04  1.44285496205284E-01
 cg2d: Sum(rhs),rhsMax =  -3.62348784632776E-04  1.44292219008426E-01
 cg2d: Sum(rhs),rhsMax =  -3.62902203237592E-04  1.44298933351342E-01
 cg2d: Sum(rhs),rhsMax =  -3.63454995263066E-04  1.44305639220835E-01
 cg2d: Sum(rhs),rhsMax =  -3.64007159802364E-04  1.44312336603728E-01
 cg2d: Sum(rhs),rhsMax =  -3.64558696013608E-04  1.44319025486865E-01
 cg2d: Sum(rhs),rhsMax =  -3.65109602973497E-04  1.44325705857114E-01
 cg2d: Sum(rhs),rhsMax =  -3.65659879896922E-04  1.44332377701364E-01
 cg2d: Sum(rhs),rhsMax =  -3.66209525845094E-04  1.44339041006526E-01
 cg2d: Sum(rhs),rhsMax =  -3.66758539878312E-04  1.44345695759532E-01
 cg2d: Sum(rhs),rhsMax =  -3.67306921279427E-04  1.44352341947339E-01
 cg2d: Sum(rhs),rhsMax =  -3.67854669193265E-04  1.44358979556922E-01
 cg2d: Sum(rhs),rhsMax =  -3.68401782645529E-04  1.44365608575281E-01
 cg2d: Sum(rhs),rhsMax =  -3.68948261003497E-04  1.44372228989438E-01
 cg2d: Sum(rhs),rhsMax =  -3.69494103143962E-04  1.44378840786436E-01
 cg2d: Sum(rhs),rhsMax =  -3.70039308476349E-04  1.44385443953340E-01
 cg2d: Sum(rhs),rhsMax =  -3.70583876087060E-04  1.44392038477238E-01
 cg2d: Sum(rhs),rhsMax =  -3.71127805189944E-04  1.44398624345240E-01
 cg2d: Sum(rhs),rhsMax =  -3.71671094923068E-04  1.44405201544480E-01
 cg2d: Sum(rhs),rhsMax =  -3.72213744455901E-04  1.44411770062110E-01
 cg2d: Sum(rhs),rhsMax =  -3.72755753121499E-04  1.44418329885309E-01
 cg2d: Sum(rhs),rhsMax =  -3.73297119949714E-04  1.44424881001275E-01
 cg2d: Sum(rhs),rhsMax =  -3.73837844276369E-04  1.44431423397229E-01
 cg2d: Sum(rhs),rhsMax =  -3.74377925265775E-04  1.44437957060416E-01
 cg2d: Sum(rhs),rhsMax =  -3.74917362211798E-04  1.44444481978102E-01
 cg2d: Sum(rhs),rhsMax =  -3.75456154230265E-04  1.44450998137576E-01
 cg2d: Sum(rhs),rhsMax =  -3.75994300669078E-04  1.44457505526149E-01
 cg2d: Sum(rhs),rhsMax =  -3.76531800627600E-04  1.44464004131155E-01
 cg2d: Sum(rhs),rhsMax =  -3.77068653460301E-04  1.44470493939950E-01
 cg2d: Sum(rhs),rhsMax =  -3.77604858393039E-04  1.44476974939913E-01
 cg2d: Sum(rhs),rhsMax =  -3.78140414584224E-04  1.44483447118445E-01
 cg2d: Sum(rhs),rhsMax =  -3.78675321365201E-04  1.44489910462970E-01
 cg2d: Sum(rhs),rhsMax =  -3.79209577994489E-04  1.44496364960935E-01
 cg2d: Sum(rhs),rhsMax =  -3.79743183651446E-04  1.44502810599809E-01
 cg2d: Sum(rhs),rhsMax =  -3.80276137741638E-04  1.44509247367083E-01
 cg2d: Sum(rhs),rhsMax =  -3.80808439494179E-04  1.44515675250272E-01
 cg2d: Sum(rhs),rhsMax =  -3.81340088097638E-04  1.44522094236914E-01
 cg2d: Sum(rhs),rhsMax =  -3.81871082907521E-04  1.44528504314569E-01
 cg2d: Sum(rhs),rhsMax =  -3.82401423196072E-04  1.44534905470819E-01
 cg2d: Sum(rhs),rhsMax =  -3.82931108306298E-04  1.44541297693269E-01
 cg2d: Sum(rhs),rhsMax =  -3.83460137457443E-04  1.44547680969549E-01
 cg2d: Sum(rhs),rhsMax =  -3.83988509962341E-04  1.44554055287309E-01
 cg2d: Sum(rhs),rhsMax =  -3.84516225184470E-04  1.44560420634224E-01
(PID.TID 0000.0001)      cg2d_init_res =   7.64007041437883E-04
(PID.TID 0000.0001)      cg2d_iters(min,last) =      -1      75
(PID.TID 0000.0001)      cg2d_last_res =   9.10622190008112E-08
(PID.TID 0000.0001) // =======================================================
(PID.TID 0000.0001) // Begin MONITOR dynamic field statistics
(PID.TID 0000.0001) // =======================================================
(PID.TID 0000.0001) %MON time_tsnumber                =                 13536
(PID.TID 0000.0001) %MON time_secondsf                =   1.6243200000000E+07
(PID.TID 0000.0001) %MON dynstat_eta_max              =   4.7958645713980E-02
(PID.TID 0000.0001) %MON dynstat_eta_min              =  -2.3727665339744E-02
(PID.TID 0000.0001) %MON dynstat_eta_mean             =   2.7832233161677E-07
(PID.TID 0000.0001) %MON dynstat_eta_sd               =   1.9334568156321E-02
(PID.TID 0000.0001) %MON dynstat_eta_del2             =   1.7481045332377E-05
(PID.TID 0000.0001) %MON dynstat_uvel_max             =   3.1314708659804E-02
(PID.TID 0000.0001) %MON dynstat_uvel_min             =  -1.7587938075539E-02
(PID.TID 0000.0001) %MON dynstat_uvel_mean            =  -1.2862263002153E-07
(PID.TID 0000.0001) %MON dynstat_uvel_sd              =   7.4166548134995E-03
(PID.TID 0000.0001) %MON dynstat_uvel_del2            =   8.5214070818535E-06
(PID.TID 0000.0001) %MON dynstat_vvel_max             =   8.6510779618634E-02
(PID.TID 0000.0001) %MON dynstat_vvel_min             =  -2.8145006219005E-02
(PID.TID 0000.0001) %MON dynstat_vvel_mean            =   2.2663067055733E-09
(PID.TID 0000.0001) %MON dynstat_vvel_sd              =   1.4913943284288E-02
(PID.TID 0000.0001) %MON dynstat_vvel_del2            =   7.3835093845272E-05
(PID.TID 0000.0001) %MON dynstat_wvel_max             =   7.9442691977602E-09
(PID.TID 0000.0001) %MON dynstat_wvel_min             =  -1.1020933646942E-08
(PID.TID 0000.0001) %MON dynstat_wvel_mean            =   2.0672608671804E-21
(PID.TID 0000.0001) %MON dynstat_wvel_sd              =   4.5637647640357E-09
(PID.TID 0000.0001) %MON dynstat_wvel_del2            =   1.6466721050888E-12
(PID.TID 0000.0001) %MON dynstat_theta_max            =   2.0000000000000E+01
(PID.TID 0000.0001) %MON dynstat_theta_min            =   2.0000000000000E+01
(PID.TID 0000.0001) %MON dynstat_theta_mean           =   2.0000000000000E+01
(PID.TID 0000.0001) %MON dynstat_theta_sd             =   0.0000000000000E+00
(PID.TID 0000.0001) %MON dynstat_theta_del2           =   0.0000000000000E+00
(PID.TID 0000.0001) %MON dynstat_salt_max             =   3.0000000000000E+01
(PID.TID 0000.0001) %MON dynstat_salt_min             =   3.0000000000000E+01
(PID.TID 0000.0001) %MON dynstat_salt_mean            =   3.0000000000000E+01
(PID.TID 0000.0001) %MON dynstat_salt_sd              =   0.0000000000000E+00
(PID.TID 0000.0001) %MON dynstat_salt_del2            =   0.0000000000000E+00
(PID.TID 0000.0001) %MON trAdv_CFL_u_max              =   1.8787904538445E-03
(PID.TID 0000.0001) %MON trAdv_CFL_v_max              =   5.1903966225045E-03
(PID.TID 0000.0001) %MON trAdv_CFL_w_max              =   1.9078573296312E-09
(PID.TID 0000.0001) %MON advcfl_uvel_max              =   1.8788825195883E-03
(PID.TID 0000.0001) %MON advcfl_vvel_max              =   5.1906467771180E-03
(PID.TID 0000.0001) %MON advcfl_wvel_max              =   5.2900481505319E-09
(PID.TID 0000.0001) %MON advcfl_W_hf_max              =   0.0000000000000E+00
(PID.TID 0000.0001) %MON pe_b_mean                    =   3.6672284087739E-07
(PID.TID 0000.0001) %MON ke_max                       =   3.7374713012809E-03
(PID.TID 0000.0001) %MON ke_mean                      =   1.3640429918867E-04
(PID.TID 0000.0001) %MON ke_vol                       =   7.2000000000000E+15
(PID.TID 0000.0001) %MON vort_r_min                   =  -1.4954273894623E-06
(PID.TID 0000.0001) %MON vort_r_max                   =   2.4098177058498E-06
(PID.TID 0000.0001) %MON vort_a_mean                  =   1.0600000000000E-04
(PID.TID 0000.0001) %MON vort_a_sd                    =   3.5366853836613E-06
(PID.TID 0000.0001) %MON vort_p_mean                  =   1.1130000000000E-04
(PID.TID 0000.0001) %MON vort_p_sd                    =   4.1152944799560E-05
(PID.TID 0000.0001) %MON surfExpan_theta_mean         =   4.1336642750720E-20
(PID.TID 0000.0001) %MON surfExpan_salt_mean          =   6.2001643325655E-20
(PID.TID 0000.0001) // =======================================================
(PID.TID 0000.0001) // End MONITOR dynamic field statistics
(PID.TID 0000.0001) // =======================================================
 cg2d: Sum(rhs),rhsMax =  -3.85043282239412E-04  1.44566776997990E-01
 cg2d: Sum(rhs),rhsMax =  -3.85569680761430E-04  1.44573124366327E-01
 cg2d: Sum(rhs),rhsMax =  -3.86095419807233E-04  1.44579462726979E-01
 cg2d: Sum(rhs),rhsMax =  -3.86620498760834E-04  1.44585792067711E-01
 cg2d: Sum(rhs),rhsMax =  -3.87144917118437E-04  1.44592112376311E-01
 cg2d: Sum(rhs),rhsMax =  -3.87668673918175E-04  1.44598423640593E-01
 cg2d: Sum(rhs),rhsMax =  -3.88191768690639E-04  1.44604725848389E-01
 cg2d: Sum(rhs),rhsMax =  -3.88714200605002E-04  1.44611018987559E-01
 cg2d: Sum(rhs),rhsMax =  -3.89235969227588E-04  1.44617303045982E-01
 cg2d: Sum(rhs),rhsMax =  -3.89757073677323E-04  1.44623578011565E-01
 cg2d: Sum(rhs),rhsMax =  -3.90277513454543E-04  1.44629843872234E-01
 cg2d: Sum(rhs),rhsMax =  -3.90797287893483E-04  1.44636100615939E-01
 cg2d: Sum(rhs),rhsMax =  -3.91316396286387E-04  1.44642348230653E-01
 cg2d: Sum(rhs),rhsMax =  -3.91834838013101E-04  1.44648586704373E-01
 cg2d: Sum(rhs),rhsMax =  -3.92352612385782E-04  1.44654816025121E-01
 cg2d: Sum(rhs),rhsMax =  -3.92869718937616E-04  1.44661036180938E-01
 cg2d: Sum(rhs),rhsMax =  -3.93386156936960E-04  1.44667247159892E-01
 cg2d: Sum(rhs),rhsMax =  -3.93901925738551E-04  1.44673448950072E-01
 cg2d: Sum(rhs),rhsMax =  -3.94417024753405E-04  1.44679641539591E-01
 cg2d: Sum(rhs),rhsMax =  -3.94931453360094E-04  1.44685824916588E-01
 cg2d: Sum(rhs),rhsMax =  -3.95445210893085E-04  1.44691999069219E-01
 cg2d: Sum(rhs),rhsMax =  -3.95958296824826E-04  1.44698163985671E-01
 cg2d: Sum(rhs),rhsMax =  -3.96470710396707E-04  1.44704319654147E-01
 cg2d: Sum(rhs),rhsMax =  -3.96982451203649E-04  1.44710466062882E-01
 cg2d: Sum(rhs),rhsMax =  -3.97493518453572E-04  1.44716603200126E-01
 cg2d: Sum(rhs),rhsMax =  -3.98003911675518E-04  1.44722731054158E-01
 cg2d: Sum(rhs),rhsMax =  -3.98513630253073E-04  1.44728849613277E-01
 cg2d: Sum(rhs),rhsMax =  -3.99022673573915E-04  1.44734958865809E-01
 cg2d: Sum(rhs),rhsMax =  -3.99531041061759E-04  1.44741058800101E-01
 cg2d: Sum(rhs),rhsMax =  -4.00038732201933E-04  1.44747149404524E-01
 cg2d: Sum(rhs),rhsMax =  -4.00545746272412E-04  1.44753230667473E-01
 cg2d: Sum(rhs),rhsMax =  -4.01052082713160E-04  1.44759302577368E-01
 cg2d: Sum(rhs),rhsMax =  -4.01557741075168E-04  1.44765365122650E-01
 cg2d: Sum(rhs),rhsMax =  -4.02062720633861E-04  1.44771418291785E-01
 cg2d: Sum(rhs),rhsMax =  -4.02567020942565E-04  1.44777462073263E-01
 cg2d: Sum(rhs),rhsMax =  -4.03070641361000E-04  1.44783496455599E-01
 cg2d: Sum(rhs),rhsMax =  -4.03573581268440E-04  1.44789521427327E-01
 cg2d: Sum(rhs),rhsMax =  -4.04075840124334E-04  1.44795536977010E-01
 cg2d: Sum(rhs),rhsMax =  -4.04577417508992E-04  1.44801543093232E-01
 cg2d: Sum(rhs),rhsMax =  -4.05078312729582E-04  1.44807539764601E-01
 cg2d: Sum(rhs),rhsMax =  -4.05578525371646E-04  1.44813526979751E-01
 cg2d: Sum(rhs),rhsMax =  -4.06078054798749E-04  1.44819504727337E-01
 cg2d: Sum(rhs),rhsMax =  -4.06576900492880E-04  1.44825472996040E-01
 cg2d: Sum(rhs),rhsMax =  -4.07075061844671E-04  1.44831431774562E-01
 cg2d: Sum(rhs),rhsMax =  -4.07572538270914E-04  1.44837381051633E-01
 cg2d: Sum(rhs),rhsMax =  -4.08069329399673E-04  1.44843320816004E-01
 cg2d: Sum(rhs),rhsMax =  -4.08565434580162E-04  1.44849251056451E-01
 cg2d: Sum(rhs),rhsMax =  -4.09060853341427E-04  1.44855171761774E-01
 cg2d: Sum(rhs),rhsMax =  -4.09555585116675E-04  1.44861082920795E-01
 cg2d: Sum(rhs),rhsMax =  -4.10049629316522E-04  1.44866984522365E-01
 cg2d: Sum(rhs),rhsMax =  -4.10542985572477E-04  1.44872876555354E-01
 cg2d: Sum(rhs),rhsMax =  -4.11035653355430E-04  1.44878759008659E-01
 cg2d: Sum(rhs),rhsMax =  -4.11527631939832E-04  1.44884631871199E-01
 cg2d: Sum(rhs),rhsMax =  -4.12018921133957E-04  1.44890495131919E-01
 cg2d: Sum(rhs),rhsMax =  -4.12509520049877E-04  1.44896348779787E-01
 cg2d: Sum(rhs),rhsMax =  -4.12999428444093E-04  1.44902192803797E-01
 cg2d: Sum(rhs),rhsMax =  -4.13488645699595E-04  1.44908027192962E-01
 cg2d: Sum(rhs),rhsMax =  -4.13977171298209E-04  1.44913851936327E-01
 cg2d: Sum(rhs),rhsMax =  -4.14465004734593E-04  1.44919667022955E-01
 cg2d: Sum(rhs),rhsMax =  -4.14952145610076E-04  1.44925472441936E-01
 cg2d: Sum(rhs),rhsMax =  -4.15438593402088E-04  1.44931268182384E-01
 cg2d: Sum(rhs),rhsMax =  -4.15924347439267E-04  1.44937054233436E-01
 cg2d: Sum(rhs),rhsMax =  -4.16409407443666E-04  1.44942830584254E-01
 cg2d: Sum(rhs),rhsMax =  -4.16893772797934E-04  1.44948597224028E-01
 cg2d: Sum(rhs),rhsMax =  -4.17377443047400E-04  1.44954354141964E-01
 cg2d: Sum(rhs),rhsMax =  -4.17860417689279E-04  1.44960101327301E-01
 cg2d: Sum(rhs),rhsMax =  -4.18342696308078E-04  1.44965838769297E-01
 cg2d: Sum(rhs),rhsMax =  -4.18824278458264E-04  1.44971566457237E-01
 cg2d: Sum(rhs),rhsMax =  -4.19305163507000E-04  1.44977284380430E-01
 cg2d: Sum(rhs),rhsMax =  -4.19785350942816E-04  1.44982992528207E-01
 cg2d: Sum(rhs),rhsMax =  -4.20264840468372E-04  1.44988690889928E-01
 cg2d: Sum(rhs),rhsMax =  -4.20743631530044E-04  1.44994379454974E-01
(PID.TID 0000.0001)      cg2d_init_res =   7.51063595146376E-04
(PID.TID 0000.0001)      cg2d_iters(min,last) =      -1      75
(PID.TID 0000.0001)      cg2d_last_res =   8.84739812223225E-08
(PID.TID 0000.0001) // =======================================================
(PID.TID 0000.0001) // Begin MONITOR dynamic field statistics
(PID.TID 0000.0001) // =======================================================
(PID.TID 0000.0001) %MON time_tsnumber                =                 13608
(PID.TID 0000.0001) %MON time_secondsf                =   1.6329600000000E+07
(PID.TID 0000.0001) %MON dynstat_eta_max              =   4.8526836061203E-02
(PID.TID 0000.0001) %MON dynstat_eta_min              =  -2.3489943897288E-02
(PID.TID 0000.0001) %MON dynstat_eta_mean             =   3.0538587225021E-07
(PID.TID 0000.0001) %MON dynstat_eta_sd               =   1.9373656487631E-02
(PID.TID 0000.0001) %MON dynstat_eta_del2             =   1.7513431925938E-05
(PID.TID 0000.0001) %MON dynstat_uvel_max             =   3.1422757959954E-02
(PID.TID 0000.0001) %MON dynstat_uvel_min             =  -1.7654940493849E-02
(PID.TID 0000.0001) %MON dynstat_uvel_mean            =  -1.0789428451375E-07
(PID.TID 0000.0001) %MON dynstat_uvel_sd              =   7.3837996651757E-03
(PID.TID 0000.0001) %MON dynstat_uvel_del2            =   8.4920551507304E-06
(PID.TID 0000.0001) %MON dynstat_vvel_max             =   8.6798278372345E-02
(PID.TID 0000.0001) %MON dynstat_vvel_min             =  -2.8103250308804E-02
(PID.TID 0000.0001) %MON dynstat_vvel_mean            =   3.0045446592203E-09
(PID.TID 0000.0001) %MON dynstat_vvel_sd              =   1.4973512440055E-02
(PID.TID 0000.0001) %MON dynstat_vvel_del2            =   7.4054012975492E-05
(PID.TID 0000.0001) %MON dynstat_wvel_max             =   7.6411968539469E-09
(PID.TID 0000.0001) %MON dynstat_wvel_min             =  -1.1239359263564E-08
(PID.TID 0000.0001) %MON dynstat_wvel_mean            =  -4.0573531300146E-22
(PID.TID 0000.0001) %MON dynstat_wvel_sd              =   4.5274898458002E-09
(PID.TID 0000.0001) %MON dynstat_wvel_del2            =   1.6378319099142E-12
(PID.TID 0000.0001) %MON dynstat_theta_max            =   2.0000000000000E+01
(PID.TID 0000.0001) %MON dynstat_theta_min            =   2.0000000000000E+01
(PID.TID 0000.0001) %MON dynstat_theta_mean           =   2.0000000000000E+01
(PID.TID 0000.0001) %MON dynstat_theta_sd             =   0.0000000000000E+00
(PID.TID 0000.0001) %MON dynstat_theta_del2           =   0.0000000000000E+00
(PID.TID 0000.0001) %MON dynstat_salt_max             =   3.0000000000000E+01
(PID.TID 0000.0001) %MON dynstat_salt_min             =   3.0000000000000E+01
(PID.TID 0000.0001) %MON dynstat_salt_mean            =   3.0000000000000E+01
(PID.TID 0000.0001) %MON dynstat_salt_sd              =   0.0000000000000E+00
(PID.TID 0000.0001) %MON dynstat_salt_del2            =   0.0000000000000E+00
(PID.TID 0000.0001) %MON trAdv_CFL_u_max              =   1.8852775583706E-03
(PID.TID 0000.0001) %MON trAdv_CFL_v_max              =   5.2076678095431E-03
(PID.TID 0000.0001) %MON trAdv_CFL_w_max              =   1.8350019953214E-09
(PID.TID 0000.0001) %MON advcfl_uvel_max              =   1.8853654775972E-03
(PID.TID 0000.0001) %MON advcfl_vvel_max              =   5.2078967023407E-03
(PID.TID 0000.0001) %MON advcfl_wvel_max              =   5.3948924465105E-09
(PID.TID 0000.0001) %MON advcfl_W_hf_max              =   0.0000000000000E+00
(PID.TID 0000.0001) %MON pe_b_mean                    =   3.6820713304390E-07
(PID.TID 0000.0001) %MON ke_max                       =   3.7616894177721E-03
(PID.TID 0000.0001) %MON ke_mean                      =   1.3704056471396E-04
(PID.TID 0000.0001) %MON ke_vol                       =   7.2000000000000E+15
(PID.TID 0000.0001) %MON vort_r_min                   =  -1.4976139149545E-06
(PID.TID 0000.0001) %MON vort_r_max                   =   2.4159863732814E-06
(PID.TID 0000.0001) %MON vort_a_mean                  =   1.0600000000000E-04
(PID.TID 0000.0001) %MON vort_a_sd                    =   3.5367854428872E-06
(PID.TID 0000.0001) %MON vort_p_mean                  =   1.1130000000000E-04
(PID.TID 0000.0001) %MON vort_p_sd                    =   4.1152903726840E-05
(PID.TID 0000.0001) %MON surfExpan_theta_mean         =  -8.1227666568237E-21
(PID.TID 0000.0001) %MON surfExpan_salt_mean          =  -1.2187307952950E-20
(PID.TID 0000.0001) // =======================================================
(PID.TID 0000.0001) // End MONITOR dynamic field statistics
(PID.TID 0000.0001) // =======================================================
 cg2d: Sum(rhs),rhsMax =  -4.21221723645573E-04  1.45000058212751E-01
 cg2d: Sum(rhs),rhsMax =  -4.21699116389389E-04  1.45005727152690E-01
 cg2d: Sum(rhs),rhsMax =  -4.22175809196266E-04  1.45011386264248E-01
 cg2d: Sum(rhs),rhsMax =  -4.22651801717367E-04  1.45017035536904E-01
 cg2d: Sum(rhs),rhsMax =  -4.23127093385421E-04  1.45022674960164E-01
 cg2d: Sum(rhs),rhsMax =  -4.23601683869046E-04  1.45028304523556E-01
 cg2d: Sum(rhs),rhsMax =  -4.24075572576996E-04  1.45033924216635E-01
 cg2d: Sum(rhs),rhsMax =  -4.24548759114901E-04  1.45039534028980E-01
 cg2d: Sum(rhs),rhsMax =  -4.25021243018440E-04  1.45045133950194E-01
 cg2d: Sum(rhs),rhsMax =  -4.25493023748349E-04  1.45050723969905E-01
 cg2d: Sum(rhs),rhsMax =  -4.25964101026733E-04  1.45056304077765E-01
 cg2d: Sum(rhs),rhsMax =  -4.26434474307046E-04  1.45061874263453E-01
 cg2d: Sum(rhs),rhsMax =  -4.26904143291129E-04  1.45067434516672E-01
 cg2d: Sum(rhs),rhsMax =  -4.27373107240974E-04  1.45072984827147E-01
 cg2d: Sum(rhs),rhsMax =  -4.27841365925168E-04  1.45078525184631E-01
 cg2d: Sum(rhs),rhsMax =  -4.28308918801338E-04  1.45084055578900E-01
 cg2d: Sum(rhs),rhsMax =  -4.28775765423341E-04  1.45089575999757E-01
 cg2d: Sum(rhs),rhsMax =  -4.29241905519236E-04  1.45095086437028E-01
 cg2d: Sum(rhs),rhsMax =  -4.29707338512621E-04  1.45100586880563E-01
 cg2d: Sum(rhs),rhsMax =  -4.30172063957534E-04  1.45106077320240E-01
 cg2d: Sum(rhs),rhsMax =  -4.30636081482049E-04  1.45111557745958E-01
 cg2d: Sum(rhs),rhsMax =  -4.31099390690267E-04  1.45117028147646E-01
 cg2d: Sum(rhs),rhsMax =  -4.31561990991200E-04  1.45122488515252E-01
 cg2d: Sum(rhs),rhsMax =  -4.32023882203609E-04  1.45127938838753E-01
 cg2d: Sum(rhs),rhsMax =  -4.32485063704121E-04  1.45133379108150E-01
 cg2d: Sum(rhs),rhsMax =  -4.32945535189106E-04  1.45138809313469E-01
 cg2d: Sum(rhs),rhsMax =  -4.33405296173766E-04  1.45144229444761E-01
 cg2d: Sum(rhs),rhsMax =  -4.33864346223887E-04  1.45149639492103E-01
 cg2d: Sum(rhs),rhsMax =  -4.34322684987645E-04  1.45155039445594E-01
 cg2d: Sum(rhs),rhsMax =  -4.34780311942708E-04  1.45160429295361E-01
 cg2d: Sum(rhs),rhsMax =  -4.35237226850632E-04  1.45165809031556E-01
 cg2d: Sum(rhs),rhsMax =  -4.35693429174774E-04  1.45171178644355E-01
 cg2d: Sum(rhs),rhsMax =  -4.36148918454168E-04  1.45176538123958E-01
 cg2d: Sum(rhs),rhsMax =  -4.36603694429615E-04  1.45181887460594E-01
 cg2d: Sum(rhs),rhsMax =  -4.37057756538551E-04  1.45187226644515E-01
 cg2d: Sum(rhs),rhsMax =  -4.37511104390969E-04  1.45192555665994E-01
 cg2d: Sum(rhs),rhsMax =  -4.37963737696711E-04  1.45197874515337E-01
 cg2d: Sum(rhs),rhsMax =  -4.38415656059126E-04  1.45203183182871E-01
 cg2d: Sum(rhs),rhsMax =  -4.38866858917058E-04  1.45208481658948E-01
 cg2d: Sum(rhs),rhsMax =  -4.39317346093257E-04  1.45213769933946E-01
 cg2d: Sum(rhs),rhsMax =  -4.39767117071064E-04  1.45219047998268E-01
 cg2d: Sum(rhs),rhsMax =  -4.40216171461681E-04  1.45224315842343E-01
 cg2d: Sum(rhs),rhsMax =  -4.40664508867636E-04  1.45229573456624E-01
 cg2d: Sum(rhs),rhsMax =  -4.41112128925585E-04  1.45234820831592E-01
 cg2d: Sum(rhs),rhsMax =  -4.41559031198963E-04  1.45240057957749E-01
 cg2d: Sum(rhs),rhsMax =  -4.42005215308962E-04  1.45245284825626E-01
 cg2d: Sum(rhs),rhsMax =  -4.42450680985432E-04  1.45250501425780E-01
 cg2d: Sum(rhs),rhsMax =  -4.42895427708865E-04  1.45255707748788E-01
 cg2d: Sum(rhs),rhsMax =  -4.43339455212548E-04  1.45260903785259E-01
 cg2d: Sum(rhs),rhsMax =  -4.43782763046694E-04  1.45266089525825E-01
 cg2d: Sum(rhs),rhsMax =  -4.44225350776609E-04  1.45271264961140E-01
 cg2d: Sum(rhs),rhsMax =  -4.44667218172531E-04  1.45276430081889E-01
 cg2d: Sum(rhs),rhsMax =  -4.45108364706313E-04  1.45281584878778E-01
 cg2d: Sum(rhs),rhsMax =  -4.45548790174726E-04  1.45286729342542E-01
 cg2d: Sum(rhs),rhsMax =  -4.45988493932300E-04  1.45291863463939E-01
 cg2d: Sum(rhs),rhsMax =  -4.46427475952741E-04  1.45296987233754E-01
 cg2d: Sum(rhs),rhsMax =  -4.46865735646966E-04  1.45302100642796E-01
 cg2d: Sum(rhs),rhsMax =  -4.47303272826573E-04  1.45307203681904E-01
 cg2d: Sum(rhs),rhsMax =  -4.47740087007392E-04  1.45312296341934E-01
 cg2d: Sum(rhs),rhsMax =  -4.48176177842170E-04  1.45317378613776E-01
 cg2d: Sum(rhs),rhsMax =  -4.48611545035225E-04  1.45322450488342E-01
 cg2d: Sum(rhs),rhsMax =  -4.49046188097140E-04  1.45327511956570E-01
 cg2d: Sum(rhs),rhsMax =  -4.49480106808836E-04  1.45332563009423E-01
 cg2d: Sum(rhs),rhsMax =  -4.49913300826711E-04  1.45337603637891E-01
 cg2d: Sum(rhs),rhsMax =  -4.50345769715536E-04  1.45342633832988E-01
 cg2d: Sum(rhs),rhsMax =  -4.50777513157032E-04  1.45347653585757E-01
 cg2d: Sum(rhs),rhsMax =  -4.51208530857451E-04  1.45352662887262E-01
 cg2d: Sum(rhs),rhsMax =  -4.51638822415602E-04  1.45357661728597E-01
 cg2d: Sum(rhs),rhsMax =  -4.52068387581251E-04  1.45362650100878E-01
 cg2d: Sum(rhs),rhsMax =  -4.52497226018913E-04  1.45367627995250E-01
 cg2d: Sum(rhs),rhsMax =  -4.52925337361015E-04  1.45372595402883E-01
 cg2d: Sum(rhs),rhsMax =  -4.53352721181969E-04  1.45377552314971E-01
(PID.TID 0000.0001)      cg2d_init_res =   7.38417321452047E-04
(PID.TID 0000.0001)      cg2d_iters(min,last) =      -1      75
(PID.TID 0000.0001)      cg2d_last_res =   8.40800610888991E-08
(PID.TID 0000.0001) // =======================================================
(PID.TID 0000.0001) // Begin MONITOR dynamic field statistics
(PID.TID 0000.0001) // =======================================================
(PID.TID 0000.0001) %MON time_tsnumber                =                 13680
(PID.TID 0000.0001) %MON time_secondsf                =   1.6416000000000E+07
(PID.TID 0000.0001) %MON dynstat_eta_max              =   4.9075096902610E-02
(PID.TID 0000.0001) %MON dynstat_eta_min              =  -2.3231824715178E-02
(PID.TID 0000.0001) %MON dynstat_eta_mean             =   3.2985789871474E-07
(PID.TID 0000.0001) %MON dynstat_eta_sd               =   1.9385265764897E-02
(PID.TID 0000.0001) %MON dynstat_eta_del2             =   1.7547568674999E-05
(PID.TID 0000.0001) %MON dynstat_uvel_max             =   3.1525281981632E-02
(PID.TID 0000.0001) %MON dynstat_uvel_min             =  -1.7715326027086E-02
(PID.TID 0000.0001) %MON dynstat_uvel_mean            =  -8.6187429529899E-08
(PID.TID 0000.0001) %MON dynstat_uvel_sd              =   7.3434332565972E-03
(PID.TID 0000.0001) %MON dynstat_uvel_del2            =   8.4593554077689E-06
(PID.TID 0000.0001) %MON dynstat_vvel_max             =   8.7058817202004E-02
(PID.TID 0000.0001) %MON dynstat_vvel_min             =  -2.8086494500255E-02
(PID.TID 0000.0001) %MON dynstat_vvel_mean            =   3.6478561164275E-09
(PID.TID 0000.0001) %MON dynstat_vvel_sd              =   1.5028816719933E-02
(PID.TID 0000.0001) %MON dynstat_vvel_del2            =   7.4266926682854E-05
(PID.TID 0000.0001) %MON dynstat_wvel_max             =   7.3171958536841E-09
(PID.TID 0000.0001) %MON dynstat_wvel_min             =  -1.1401283222367E-08
(PID.TID 0000.0001) %MON dynstat_wvel_mean            =  -3.8085189165334E-21
(PID.TID 0000.0001) %MON dynstat_wvel_sd              =   4.4956673346846E-09
(PID.TID 0000.0001) %MON dynstat_wvel_del2            =   1.6266148624673E-12
(PID.TID 0000.0001) %MON dynstat_theta_max            =   2.0000000000000E+01
(PID.TID 0000.0001) %MON dynstat_theta_min            =   2.0000000000000E+01
(PID.TID 0000.0001) %MON dynstat_theta_mean           =   2.0000000000000E+01
(PID.TID 0000.0001) %MON dynstat_theta_sd             =   0.0000000000000E+00
(PID.TID 0000.0001) %MON dynstat_theta_del2           =   0.0000000000000E+00
(PID.TID 0000.0001) %MON dynstat_salt_max             =   3.0000000000000E+01
(PID.TID 0000.0001) %MON dynstat_salt_min             =   3.0000000000000E+01
(PID.TID 0000.0001) %MON dynstat_salt_mean            =   3.0000000000000E+01
(PID.TID 0000.0001) %MON dynstat_salt_sd              =   0.0000000000000E+00
(PID.TID 0000.0001) %MON dynstat_salt_del2            =   0.0000000000000E+00
(PID.TID 0000.0001) %MON trAdv_CFL_u_max              =   1.8914340365314E-03
(PID.TID 0000.0001) %MON trAdv_CFL_v_max              =   5.2233237285290E-03
(PID.TID 0000.0001) %MON trAdv_CFL_w_max              =   1.7571193339303E-09
(PID.TID 0000.0001) %MON advcfl_uvel_max              =   1.8915169188979E-03
(PID.TID 0000.0001) %MON advcfl_vvel_max              =   5.2235290321202E-03
(PID.TID 0000.0001) %MON advcfl_wvel_max              =   5.4726159467362E-09
(PID.TID 0000.0001) %MON advcfl_W_hf_max              =   0.0000000000000E+00
(PID.TID 0000.0001) %MON pe_b_mean                    =   3.6864854683568E-07
(PID.TID 0000.0001) %MON ke_max                       =   3.7836438201300E-03
(PID.TID 0000.0001) %MON ke_mean                      =   1.3756407746808E-04
(PID.TID 0000.0001) %MON ke_vol                       =   7.2000000000000E+15
(PID.TID 0000.0001) %MON vort_r_min                   =  -1.5000493912894E-06
(PID.TID 0000.0001) %MON vort_r_max                   =   2.4211551048294E-06
(PID.TID 0000.0001) %MON vort_a_mean                  =   1.0600000000000E-04
(PID.TID 0000.0001) %MON vort_a_sd                    =   3.5368808199226E-06
(PID.TID 0000.0001) %MON vort_p_mean                  =   1.1130000000000E-04
(PID.TID 0000.0001) %MON vort_p_sd                    =   4.1152852614722E-05
(PID.TID 0000.0001) %MON surfExpan_theta_mean         =  -7.6174868881809E-20
(PID.TID 0000.0001) %MON surfExpan_salt_mean          =  -1.1426009274531E-19
(PID.TID 0000.0001) // =======================================================
(PID.TID 0000.0001) // End MONITOR dynamic field statistics
(PID.TID 0000.0001) // =======================================================
 cg2d: Sum(rhs),rhsMax =  -4.53779377293947E-04  1.45382498722737E-01
 cg2d: Sum(rhs),rhsMax =  -4.54205305406062E-04  1.45387434617425E-01
 cg2d: Sum(rhs),rhsMax =  -4.54630505089268E-04  1.45392359990309E-01
 cg2d: Sum(rhs),rhsMax =  -4.55054976000615E-04  1.45397274832688E-01
 cg2d: Sum(rhs),rhsMax =  -4.55478717942688E-04  1.45402179135887E-01
 cg2d: Sum(rhs),rhsMax =  -4.55901730441236E-04  1.45407072891255E-01
 cg2d: Sum(rhs),rhsMax =  -4.56324013350368E-04  1.45411956090169E-01
 cg2d: Sum(rhs),rhsMax =  -4.56745566387156E-04  1.45416828724031E-01
 cg2d: Sum(rhs),rhsMax =  -4.57166389132448E-04  1.45421690784268E-01
 cg2d: Sum(rhs),rhsMax =  -4.57586481349664E-04  1.45426542262337E-01
 cg2d: Sum(rhs),rhsMax =  -4.58005842682478E-04  1.45431383149714E-01
 cg2d: Sum(rhs),rhsMax =  -4.58424472920011E-04  1.45436213437908E-01
 cg2d: Sum(rhs),rhsMax =  -4.58842371710191E-04  1.45441033118450E-01
 cg2d: Sum(rhs),rhsMax =  -4.59259538813588E-04  1.45445842182899E-01
 cg2d: Sum(rhs),rhsMax =  -4.59675973925427E-04  1.45450640622836E-01
 cg2d: Sum(rhs),rhsMax =  -4.60091676802515E-04  1.45455428429874E-01
 cg2d: Sum(rhs),rhsMax =  -4.60506647220880E-04  1.45460205595648E-01
 cg2d: Sum(rhs),rhsMax =  -4.60920884766818E-04  1.45464972111820E-01
 cg2d: Sum(rhs),rhsMax =  -4.61334389274573E-04  1.45469727970077E-01
 cg2d: Sum(rhs),rhsMax =  -4.61747160433816E-04  1.45474473162137E-01
 cg2d: Sum(rhs),rhsMax =  -4.62159198066249E-04  1.45479207679737E-01
 cg2d: Sum(rhs),rhsMax =  -4.62570501896437E-04  1.45483931514644E-01
 cg2d: Sum(rhs),rhsMax =  -4.62981071647459E-04  1.45488644658652E-01
 cg2d: Sum(rhs),rhsMax =  -4.63390907071698E-04  1.45493347103578E-01
 cg2d: Sum(rhs),rhsMax =  -4.63800007843622E-04  1.45498038841269E-01
 cg2d: Sum(rhs),rhsMax =  -4.64208373956839E-04  1.45502719863594E-01
 cg2d: Sum(rhs),rhsMax =  -4.64616004994605E-04  1.45507390162453E-01
 cg2d: Sum(rhs),rhsMax =  -4.65022900774044E-04  1.45512049729766E-01
 cg2d: Sum(rhs),rhsMax =  -4.65429061113856E-04  1.45516698557486E-01
 cg2d: Sum(rhs),rhsMax =  -4.65834485769330E-04  1.45521336637587E-01
 cg2d: Sum(rhs),rhsMax =  -4.66239174550720E-04  1.45525963962072E-01
 cg2d: Sum(rhs),rhsMax =  -4.66643127362087E-04  1.45530580522970E-01
 cg2d: Sum(rhs),rhsMax =  -4.67046343721308E-04  1.45535186312335E-01
 cg2d: Sum(rhs),rhsMax =  -4.67448823662072E-04  1.45539781322247E-01
 cg2d: Sum(rhs),rhsMax =  -4.67850566844544E-04  1.45544365544815E-01
 cg2d: Sum(rhs),rhsMax =  -4.68251573249635E-04  1.45548938972172E-01
 cg2d: Sum(rhs),rhsMax =  -4.68651842587524E-04  1.45553501596479E-01
 cg2d: Sum(rhs),rhsMax =  -4.69051374824958E-04  1.45558053409921E-01
 cg2d: Sum(rhs),rhsMax =  -4.69450169625352E-04  1.45562594404710E-01
 cg2d: Sum(rhs),rhsMax =  -4.69848226871942E-04  1.45567124573086E-01
 cg2d: Sum(rhs),rhsMax =  -4.70245546542423E-04  1.45571643907316E-01
 cg2d: Sum(rhs),rhsMax =  -4.70642128310461E-04  1.45576152399689E-01
 cg2d: Sum(rhs),rhsMax =  -4.71037972132664E-04  1.45580650042524E-01
 cg2d: Sum(rhs),rhsMax =  -4.71433077846597E-04  1.45585136828167E-01
 cg2d: Sum(rhs),rhsMax =  -4.71827445362546E-04  1.45589612748986E-01
 cg2d: Sum(rhs),rhsMax =  -4.72221074526036E-04  1.45594077797382E-01
 cg2d: Sum(rhs),rhsMax =  -4.72613965200664E-04  1.45598531965777E-01
 cg2d: Sum(rhs),rhsMax =  -4.73006117356260E-04  1.45602975246621E-01
 cg2d: Sum(rhs),rhsMax =  -4.73397530810967E-04  1.45607407632392E-01
 cg2d: Sum(rhs),rhsMax =  -4.73788205449631E-04  1.45611829115592E-01
 cg2d: Sum(rhs),rhsMax =  -4.74178141300730E-04  1.45616239688753E-01
 cg2d: Sum(rhs),rhsMax =  -4.74567338300729E-04  1.45620639344428E-01
 cg2d: Sum(rhs),rhsMax =  -4.74955796148977E-04  1.45625028075203E-01
 cg2d: Sum(rhs),rhsMax =  -4.75343515038519E-04  1.45629405873686E-01
 cg2d: Sum(rhs),rhsMax =  -4.75730494806781E-04  1.45633772732513E-01
 cg2d: Sum(rhs),rhsMax =  -4.76116735368353E-04  1.45638128644347E-01
 cg2d: Sum(rhs),rhsMax =  -4.76502236691574E-04  1.45642473601876E-01
 cg2d: Sum(rhs),rhsMax =  -4.76886998859095E-04  1.45646807597816E-01
 cg2d: Sum(rhs),rhsMax =  -4.77271021654358E-04  1.45651130624911E-01
 cg2d: Sum(rhs),rhsMax =  -4.77654305189895E-04  1.45655442675926E-01
 cg2d: Sum(rhs),rhsMax =  -4.78036849537448E-04  1.45659743743662E-01
 cg2d: Sum(rhs),rhsMax =  -4.78418654526637E-04  1.45664033820935E-01
 cg2d: Sum(rhs),rhsMax =  -4.78799720274761E-04  1.45668312900599E-01
 cg2d: Sum(rhs),rhsMax =  -4.79180046725567E-04  1.45672580975526E-01
 cg2d: Sum(rhs),rhsMax =  -4.79559634029839E-04  1.45676838038618E-01
 cg2d: Sum(rhs),rhsMax =  -4.79938482000706E-04  1.45681084082806E-01
 cg2d: Sum(rhs),rhsMax =  -4.80316590843239E-04  1.45685319101045E-01
 cg2d: Sum(rhs),rhsMax =  -4.80693960657854E-04  1.45689543086316E-01
 cg2d: Sum(rhs),rhsMax =  -4.81070591410201E-04  1.45693756031627E-01
 cg2d: Sum(rhs),rhsMax =  -4.81446483125617E-04  1.45697957930016E-01
 cg2d: Sum(rhs),rhsMax =  -4.81821635957066E-04  1.45702148774544E-01
 cg2d: Sum(rhs),rhsMax =  -4.82196050167296E-04  1.45706328558299E-01
(PID.TID 0000.0001)      cg2d_init_res =   7.26270287259381E-04
(PID.TID 0000.0001)      cg2d_iters(min,last) =      -1      75
(PID.TID 0000.0001)      cg2d_last_res =   7.92882861376771E-08
(PID.TID 0000.0001) // =======================================================
(PID.TID 0000.0001) // Begin MONITOR dynamic field statistics
(PID.TID 0000.0001) // =======================================================
(PID.TID 0000.0001) %MON time_tsnumber                =                 13752
(PID.TID 0000.0001) %MON time_secondsf                =   1.6502400000000E+07
(PID.TID 0000.0001) %MON dynstat_eta_max              =   4.9596835427478E-02
(PID.TID 0000.0001) %MON dynstat_eta_min              =  -2.2957046588410E-02
(PID.TID 0000.0001) %MON dynstat_eta_mean             =   3.5157737337950E-07
(PID.TID 0000.0001) %MON dynstat_eta_sd               =   1.9369769783298E-02
(PID.TID 0000.0001) %MON dynstat_eta_del2             =   1.7583044768716E-05
(PID.TID 0000.0001) %MON dynstat_uvel_max             =   3.1621261773163E-02
(PID.TID 0000.0001) %MON dynstat_uvel_min             =  -1.7753415697322E-02
(PID.TID 0000.0001) %MON dynstat_uvel_mean            =  -6.3793637502170E-08
(PID.TID 0000.0001) %MON dynstat_uvel_sd              =   7.2962053552986E-03
(PID.TID 0000.0001) %MON dynstat_uvel_del2            =   8.4239650509764E-06
(PID.TID 0000.0001) %MON dynstat_vvel_max             =   8.7289789995342E-02
(PID.TID 0000.0001) %MON dynstat_vvel_min             =  -2.8094325486799E-02
(PID.TID 0000.0001) %MON dynstat_vvel_mean            =   4.1908201832531E-09
(PID.TID 0000.0001) %MON dynstat_vvel_sd              =   1.5079321086996E-02
(PID.TID 0000.0001) %MON dynstat_vvel_del2            =   7.4471633996737E-05
(PID.TID 0000.0001) %MON dynstat_wvel_max             =   6.9819354859646E-09
(PID.TID 0000.0001) %MON dynstat_wvel_min             =  -1.1522947701160E-08
(PID.TID 0000.0001) %MON dynstat_wvel_mean            =  -8.2768792708521E-22
(PID.TID 0000.0001) %MON dynstat_wvel_sd              =   4.4683776497899E-09
(PID.TID 0000.0001) %MON dynstat_wvel_del2            =   1.6133634479666E-12
(PID.TID 0000.0001) %MON dynstat_theta_max            =   2.0000000000000E+01
(PID.TID 0000.0001) %MON dynstat_theta_min            =   2.0000000000000E+01
(PID.TID 0000.0001) %MON dynstat_theta_mean           =   2.0000000000000E+01
(PID.TID 0000.0001) %MON dynstat_theta_sd             =   0.0000000000000E+00
(PID.TID 0000.0001) %MON dynstat_theta_del2           =   0.0000000000000E+00
(PID.TID 0000.0001) %MON dynstat_salt_max             =   3.0000000000000E+01
(PID.TID 0000.0001) %MON dynstat_salt_min             =   3.0000000000000E+01
(PID.TID 0000.0001) %MON dynstat_salt_mean            =   3.0000000000000E+01
(PID.TID 0000.0001) %MON dynstat_salt_sd              =   0.0000000000000E+00
(PID.TID 0000.0001) %MON dynstat_salt_del2            =   0.0000000000000E+00
(PID.TID 0000.0001) %MON trAdv_CFL_u_max              =   1.8971986685109E-03
(PID.TID 0000.0001) %MON trAdv_CFL_v_max              =   5.2372077020611E-03
(PID.TID 0000.0001) %MON trAdv_CFL_w_max              =   1.6769010479562E-09
(PID.TID 0000.0001) %MON advcfl_uvel_max              =   1.8972757063898E-03
(PID.TID 0000.0001) %MON advcfl_vvel_max              =   5.2373873997205E-03
(PID.TID 0000.0001) %MON advcfl_wvel_max              =   5.5310148965567E-09
(PID.TID 0000.0001) %MON advcfl_W_hf_max              =   0.0000000000000E+00
(PID.TID 0000.0001) %MON pe_b_mean                    =   3.6805940993153E-07
(PID.TID 0000.0001) %MON ke_max                       =   3.8030879386861E-03
(PID.TID 0000.0001) %MON ke_mean                      =   1.3797176404245E-04
(PID.TID 0000.0001) %MON ke_vol                       =   7.2000000000000E+15
(PID.TID 0000.0001) %MON vort_r_min                   =  -1.5030633908781E-06
(PID.TID 0000.0001) %MON vort_r_max                   =   2.4252761241426E-06
(PID.TID 0000.0001) %MON vort_a_mean                  =   1.0600000000000E-04
(PID.TID 0000.0001) %MON vort_a_sd                    =   3.5369705446160E-06
(PID.TID 0000.0001) %MON vort_p_mean                  =   1.1130000000000E-04
(PID.TID 0000.0001) %MON vort_p_sd                    =   4.1152792424930E-05
(PID.TID 0000.0001) %MON surfExpan_theta_mean         =  -1.6557303676260E-20
(PID.TID 0000.0001) %MON surfExpan_salt_mean          =  -2.4835718666812E-20
(PID.TID 0000.0001) // =======================================================
(PID.TID 0000.0001) // End MONITOR dynamic field statistics
(PID.TID 0000.0001) // =======================================================
 cg2d: Sum(rhs),rhsMax =  -4.82569725550898E-04  1.45710497274398E-01
 cg2d: Sum(rhs),rhsMax =  -4.82942662292865E-04  1.45714654915984E-01
 cg2d: Sum(rhs),rhsMax =  -4.83314860644022E-04  1.45718801476225E-01
 cg2d: Sum(rhs),rhsMax =  -4.83686320627423E-04  1.45722936948317E-01
 cg2d: Sum(rhs),rhsMax =  -4.84057042454670E-04  1.45727061325484E-01
 cg2d: Sum(rhs),rhsMax =  -4.84427026187653E-04  1.45731174600975E-01
 cg2d: Sum(rhs),rhsMax =  -4.84796272018850E-04  1.45735276768067E-01
 cg2d: Sum(rhs),rhsMax =  -4.85164780157267E-04  1.45739367820062E-01
 cg2d: Sum(rhs),rhsMax =  -4.85532550729502E-04  1.45743447750291E-01
 cg2d: Sum(rhs),rhsMax =  -4.85899583924952E-04  1.45747516552111E-01
 cg2d: Sum(rhs),rhsMax =  -4.86265880027881E-04  1.45751574218906E-01
 cg2d: Sum(rhs),rhsMax =  -4.86631439072814E-04  1.45755620744087E-01
 cg2d: Sum(rhs),rhsMax =  -4.86996261462876E-04  1.45759656121089E-01
 cg2d: Sum(rhs),rhsMax =  -4.87360347340805E-04  1.45763680343380E-01
 cg2d: Sum(rhs),rhsMax =  -4.87723696880575E-04  1.45767693404448E-01
 cg2d: Sum(rhs),rhsMax =  -4.88086310515001E-04  1.45771695297815E-01
 cg2d: Sum(rhs),rhsMax =  -4.88448188340060E-04  1.45775686017022E-01
 cg2d: Sum(rhs),rhsMax =  -4.88809330677603E-04  1.45779665555645E-01
 cg2d: Sum(rhs),rhsMax =  -4.89169737847444E-04  1.45783633907280E-01
 cg2d: Sum(rhs),rhsMax =  -4.89592344124197E-04  1.45787590634042E-01
 cg2d: Sum(rhs),rhsMax =  -4.90014245089914E-04  1.45791536589723E-01
 cg2d: Sum(rhs),rhsMax =  -4.90435340231136E-04  1.45795471343804E-01
 cg2d: Sum(rhs),rhsMax =  -4.90855625528842E-04  1.45799394882112E-01
 cg2d: Sum(rhs),rhsMax =  -4.91275086760496E-04  1.45803307200791E-01
 cg2d: Sum(rhs),rhsMax =  -4.91693723367447E-04  1.45807208295072E-01
 cg2d: Sum(rhs),rhsMax =  -4.92111542672809E-04  1.45811098159110E-01
 cg2d: Sum(rhs),rhsMax =  -4.92528552918323E-04  1.45814976786321E-01
 cg2d: Sum(rhs),rhsMax =  -4.92944759408418E-04  1.45818844170073E-01
 cg2d: Sum(rhs),rhsMax =  -4.93360163371698E-04  1.45822700304034E-01
 cg2d: Sum(rhs),rhsMax =  -4.93774763958382E-04  1.45826545182162E-01
 cg2d: Sum(rhs),rhsMax =  -4.94188560212938E-04  1.45830378798545E-01
 cg2d: Sum(rhs),rhsMax =  -4.94601551663684E-04  1.45834201147275E-01
 cg2d: Sum(rhs),rhsMax =  -4.95013739154231E-04  1.45838012222380E-01
 cg2d: Sum(rhs),rhsMax =  -4.95425123819176E-04  1.45841812017832E-01
 cg2d: Sum(rhs),rhsMax =  -4.95835706875761E-04  1.45845600527594E-01
 cg2d: Sum(rhs),rhsMax =  -4.96245489602696E-04  1.45849377745659E-01
 cg2d: Sum(rhs),rhsMax =  -4.96654472737213E-04  1.45853143666079E-01
 cg2d: Sum(rhs),rhsMax =  -4.97062657250569E-04  1.45856898282963E-01
 cg2d: Sum(rhs),rhsMax =  -4.97470043608062E-04  1.45860641590466E-01
 cg2d: Sum(rhs),rhsMax =  -4.97876632729510E-04  1.45864373582786E-01
 cg2d: Sum(rhs),rhsMax =  -4.98282425358576E-04  1.45868094254135E-01
 cg2d: Sum(rhs),rhsMax =  -4.98687422266960E-04  1.45871803598746E-01
 cg2d: Sum(rhs),rhsMax =  -4.99091624547946E-04  1.45875501610867E-01
 cg2d: Sum(rhs),rhsMax =  -4.99495032713623E-04  1.45879188284768E-01
 cg2d: Sum(rhs),rhsMax =  -4.99897647759739E-04  1.45882863614745E-01
 cg2d: Sum(rhs),rhsMax =  -5.00299470447901E-04  1.45886527595118E-01
 cg2d: Sum(rhs),rhsMax =  -5.00700501538442E-04  1.45890180220241E-01
 cg2d: Sum(rhs),rhsMax =  -5.01100741809085E-04  1.45893821484493E-01
 cg2d: Sum(rhs),rhsMax =  -5.01500192137266E-04  1.45897451382288E-01
 cg2d: Sum(rhs),rhsMax =  -5.01898853078850E-04  1.45901069908065E-01
 cg2d: Sum(rhs),rhsMax =  -5.02296725513222E-04  1.45904677056293E-01
 cg2d: Sum(rhs),rhsMax =  -5.02693810136565E-04  1.45908272821465E-01
 cg2d: Sum(rhs),rhsMax =  -5.03090107773148E-04  1.45911857198103E-01
 cg2d: Sum(rhs),rhsMax =  -5.03485618972684E-04  1.45915430180754E-01
 cg2d: Sum(rhs),rhsMax =  -5.03880344521442E-04  1.45918991763992E-01
 cg2d: Sum(rhs),rhsMax =  -5.04274285032471E-04  1.45922541942417E-01
 cg2d: Sum(rhs),rhsMax =  -5.04667441206067E-04  1.45926080710657E-01
 cg2d: Sum(rhs),rhsMax =  -5.05059813696944E-04  1.45929608063367E-01
 cg2d: Sum(rhs),rhsMax =  -5.05451402978020E-04  1.45933123995231E-01
 cg2d: Sum(rhs),rhsMax =  -5.05842209622471E-04  1.45936628500958E-01
 cg2d: Sum(rhs),rhsMax =  -5.06232234192117E-04  1.45940121575287E-01
 cg2d: Sum(rhs),rhsMax =  -5.06621477228803E-04  1.45943603212981E-01
 cg2d: Sum(rhs),rhsMax =  -5.07009939241572E-04  1.45947073408836E-01
 cg2d: Sum(rhs),rhsMax =  -5.07397620557200E-04  1.45950532157669E-01
 cg2d: Sum(rhs),rhsMax =  -5.07784521692119E-04  1.45953979454328E-01
 cg2d: Sum(rhs),rhsMax =  -5.08170643056708E-04  1.45957415293687E-01
 cg2d: Sum(rhs),rhsMax =  -5.08555984783549E-04  1.45960839670647E-01
 cg2d: Sum(rhs),rhsMax =  -5.08940547208167E-04  1.45964252580137E-01
 cg2d: Sum(rhs),rhsMax =  -5.09324330599505E-04  1.45967654017113E-01
 cg2d: Sum(rhs),rhsMax =  -5.09707335100372E-04  1.45971043976557E-01
 cg2d: Sum(rhs),rhsMax =  -5.10089560755234E-04  1.45974422453483E-01
 cg2d: Sum(rhs),rhsMax =  -5.10471007661183E-04  1.45977789442924E-01
(PID.TID 0000.0001)      cg2d_init_res =   7.14808153639473E-04
(PID.TID 0000.0001)      cg2d_iters(min,last) =      -1      74
(PID.TID 0000.0001)      cg2d_last_res =   9.68765889382347E-08
(PID.TID 0000.0001) // =======================================================
(PID.TID 0000.0001) // Begin MONITOR dynamic field statistics
(PID.TID 0000.0001) // =======================================================
(PID.TID 0000.0001) %MON time_tsnumber                =                 13824
(PID.TID 0000.0001) %MON time_secondsf                =   1.6588800000000E+07
(PID.TID 0000.0001) %MON dynstat_eta_max              =   5.0085889598359E-02
(PID.TID 0000.0001) %MON dynstat_eta_min              =  -2.2669481283658E-02
(PID.TID 0000.0001) %MON dynstat_eta_mean             =   3.7287356273456E-07
(PID.TID 0000.0001) %MON dynstat_eta_sd               =   1.9327787907867E-02
(PID.TID 0000.0001) %MON dynstat_eta_del2             =   1.7619441998374E-05
(PID.TID 0000.0001) %MON dynstat_uvel_max             =   3.1709782610084E-02
(PID.TID 0000.0001) %MON dynstat_uvel_min             =  -1.7785152683515E-02
(PID.TID 0000.0001) %MON dynstat_uvel_mean            =  -4.1007526918501E-08
(PID.TID 0000.0001) %MON dynstat_uvel_sd              =   7.2428185981500E-03
(PID.TID 0000.0001) %MON dynstat_uvel_del2            =   8.3865118474736E-06
(PID.TID 0000.0001) %MON dynstat_vvel_max             =   8.7488976097846E-02
(PID.TID 0000.0001) %MON dynstat_vvel_min             =  -2.8126067530672E-02
(PID.TID 0000.0001) %MON dynstat_vvel_mean            =   4.6292559485276E-09
(PID.TID 0000.0001) %MON dynstat_vvel_sd              =   1.5124567105528E-02
(PID.TID 0000.0001) %MON dynstat_vvel_del2            =   7.4666097419160E-05
(PID.TID 0000.0001) %MON dynstat_wvel_max             =   6.6128941607894E-09
(PID.TID 0000.0001) %MON dynstat_wvel_min             =  -1.1640630006441E-08
(PID.TID 0000.0001) %MON dynstat_wvel_mean            =   8.6936147959528E-22
(PID.TID 0000.0001) %MON dynstat_wvel_sd              =   4.4454895300349E-09
(PID.TID 0000.0001) %MON dynstat_wvel_del2            =   1.6030981003862E-12
(PID.TID 0000.0001) %MON dynstat_theta_max            =   2.0000000000000E+01
(PID.TID 0000.0001) %MON dynstat_theta_min            =   2.0000000000000E+01
(PID.TID 0000.0001) %MON dynstat_theta_mean           =   2.0000000000000E+01
(PID.TID 0000.0001) %MON dynstat_theta_sd             =   0.0000000000000E+00
(PID.TID 0000.0001) %MON dynstat_theta_del2           =   0.0000000000000E+00
(PID.TID 0000.0001) %MON dynstat_salt_max             =   3.0000000000000E+01
(PID.TID 0000.0001) %MON dynstat_salt_min             =   3.0000000000000E+01
(PID.TID 0000.0001) %MON dynstat_salt_mean            =   3.0000000000000E+01
(PID.TID 0000.0001) %MON dynstat_salt_sd              =   0.0000000000000E+00
(PID.TID 0000.0001) %MON dynstat_salt_del2            =   0.0000000000000E+00
(PID.TID 0000.0001) %MON trAdv_CFL_u_max              =   1.9025164801681E-03
(PID.TID 0000.0001) %MON trAdv_CFL_v_max              =   5.2491861601062E-03
(PID.TID 0000.0001) %MON trAdv_CFL_w_max              =   1.5881919113919E-09
(PID.TID 0000.0001) %MON advcfl_uvel_max              =   1.9025869566051E-03
(PID.TID 0000.0001) %MON advcfl_vvel_max              =   5.2493385658707E-03
(PID.TID 0000.0001) %MON advcfl_wvel_max              =   5.5875024030916E-09
(PID.TID 0000.0001) %MON advcfl_W_hf_max              =   0.0000000000000E+00
(PID.TID 0000.0001) %MON pe_b_mean                    =   3.6646568122505E-07
(PID.TID 0000.0001) %MON ke_max                       =   3.8202218086268E-03
(PID.TID 0000.0001) %MON ke_mean                      =   1.3826205109370E-04
(PID.TID 0000.0001) %MON ke_vol                       =   7.2000000000000E+15
(PID.TID 0000.0001) %MON vort_r_min                   =  -1.5060805387654E-06
(PID.TID 0000.0001) %MON vort_r_max                   =   2.4283147561995E-06
(PID.TID 0000.0001) %MON vort_a_mean                  =   1.0600000000000E-04
(PID.TID 0000.0001) %MON vort_a_sd                    =   3.5370537373136E-06
(PID.TID 0000.0001) %MON vort_p_mean                  =   1.1130000000000E-04
(PID.TID 0000.0001) %MON vort_p_sd                    =   4.1152724185256E-05
(PID.TID 0000.0001) %MON surfExpan_theta_mean         =   1.7378651604203E-20
(PID.TID 0000.0001) %MON surfExpan_salt_mean          =   2.6069872186933E-20
(PID.TID 0000.0001) // =======================================================
(PID.TID 0000.0001) // End MONITOR dynamic field statistics
(PID.TID 0000.0001) // =======================================================
 cg2d: Sum(rhs),rhsMax =  -5.10851675898974E-04  1.45981144939951E-01
 cg2d: Sum(rhs),rhsMax =  -5.11231565346809E-04  1.45984488939653E-01
 cg2d: Sum(rhs),rhsMax =  -5.11610675733879E-04  1.45987821437151E-01
 cg2d: Sum(rhs),rhsMax =  -5.11989006783577E-04  1.45991142427593E-01
 cg2d: Sum(rhs),rhsMax =  -5.12366558394320E-04  1.45994451906154E-01
 cg2d: Sum(rhs),rhsMax =  -5.12743329952822E-04  1.45997749868036E-01
 cg2d: Sum(rhs),rhsMax =  -5.13119321104933E-04  1.46001036308467E-01
 cg2d: Sum(rhs),rhsMax =  -5.13494531199364E-04  1.46004311222708E-01
 cg2d: Sum(rhs),rhsMax =  -5.13868959514850E-04  1.46007574606039E-01
 cg2d: Sum(rhs),rhsMax =  -5.14242605199865E-04  1.46010826453774E-01
 cg2d: Sum(rhs),rhsMax =  -5.14615467442288E-04  1.46014066761253E-01
 cg2d: Sum(rhs),rhsMax =  -5.14987545034795E-04  1.46017295523840E-01
 cg2d: Sum(rhs),rhsMax =  -5.15358836930172E-04  1.46020512736931E-01
 cg2d: Sum(rhs),rhsMax =  -5.15729341736582E-04  1.46023718395947E-01
 cg2d: Sum(rhs),rhsMax =  -5.16099058093519E-04  1.46026912496337E-01
 cg2d: Sum(rhs),rhsMax =  -5.16467984242476E-04  1.46030095033577E-01
 cg2d: Sum(rhs),rhsMax =  -5.16836118453526E-04  1.46033266003171E-01
 cg2d: Sum(rhs),rhsMax =  -5.17203458678953E-04  1.46036425400650E-01
 cg2d: Sum(rhs),rhsMax =  -5.17570002796225E-04  1.46039573221572E-01
 cg2d: Sum(rhs),rhsMax =  -5.17935748552778E-04  1.46042709461525E-01
 cg2d: Sum(rhs),rhsMax =  -5.18300693290094E-04  1.46045834116121E-01
 cg2d: Sum(rhs),rhsMax =  -5.18664834300190E-04  1.46048947181000E-01
 cg2d: Sum(rhs),rhsMax =  -5.19028168557503E-04  1.46052048651833E-01
 cg2d: Sum(rhs),rhsMax =  -5.19390692778275E-04  1.46055138524314E-01
 cg2d: Sum(rhs),rhsMax =  -5.19752403507379E-04  1.46058216794168E-01
 cg2d: Sum(rhs),rhsMax =  -5.20113296984350E-04  1.46061283457145E-01
 cg2d: Sum(rhs),rhsMax =  -5.20473369160628E-04  1.46064338509022E-01
 cg2d: Sum(rhs),rhsMax =  -5.20832615549150E-04  1.46067381945608E-01
 cg2d: Sum(rhs),rhsMax =  -5.21191031575818E-04  1.46070413762734E-01
 cg2d: Sum(rhs),rhsMax =  -5.21548612136586E-04  1.46073433956262E-01
 cg2d: Sum(rhs),rhsMax =  -5.21905351876323E-04  1.46076442522080E-01
 cg2d: Sum(rhs),rhsMax =  -5.22261245134986E-04  1.46079439456103E-01
 cg2d: Sum(rhs),rhsMax =  -5.22616285635363E-04  1.46082424754277E-01
 cg2d: Sum(rhs),rhsMax =  -5.22970466716938E-04  1.46085398412571E-01
 cg2d: Sum(rhs),rhsMax =  -5.23323781525590E-04  1.46088360426982E-01
 cg2d: Sum(rhs),rhsMax =  -5.23676222443030E-04  1.46091310793540E-01
 cg2d: Sum(rhs),rhsMax =  -5.24027781494192E-04  1.46094249508296E-01
 cg2d: Sum(rhs),rhsMax =  -5.24378450044425E-04  1.46097176567330E-01
 cg2d: Sum(rhs),rhsMax =  -5.24728219158268E-04  1.46100091966753E-01
 cg2d: Sum(rhs),rhsMax =  -5.25077079041561E-04  1.46102995702700E-01
 cg2d: Sum(rhs),rhsMax =  -5.25425019383984E-04  1.46105887771336E-01
 cg2d: Sum(rhs),rhsMax =  -5.25772029254729E-04  1.46108768168850E-01
 cg2d: Sum(rhs),rhsMax =  -5.26118096945260E-04  1.46111636891463E-01
 cg2d: Sum(rhs),rhsMax =  -5.26463209941405E-04  1.46114493935420E-01
 cg2d: Sum(rhs),rhsMax =  -5.26807355101125E-04  1.46117339296995E-01
 cg2d: Sum(rhs),rhsMax =  -5.27150518301928E-04  1.46120172972491E-01
 cg2d: Sum(rhs),rhsMax =  -5.27492684719850E-04  1.46122994958237E-01
 cg2d: Sum(rhs),rhsMax =  -5.27833838530840E-04  1.46125805250588E-01
 cg2d: Sum(rhs),rhsMax =  -5.28173962805356E-04  1.46128603845931E-01
 cg2d: Sum(rhs),rhsMax =  -5.28513039652335E-04  1.46131390740675E-01
 cg2d: Sum(rhs),rhsMax =  -5.28851050087558E-04  1.46134165931261E-01
 cg2d: Sum(rhs),rhsMax =  -5.29187973900004E-04  1.46136929414156E-01
 cg2d: Sum(rhs),rhsMax =  -5.29523789729696E-04  1.46139681185856E-01
 cg2d: Sum(rhs),rhsMax =  -5.29858474822688E-04  1.46142421242881E-01
 cg2d: Sum(rhs),rhsMax =  -5.30192005001514E-04  1.46145149581784E-01
 cg2d: Sum(rhs),rhsMax =  -5.30524354615749E-04  1.46147866199139E-01
 cg2d: Sum(rhs),rhsMax =  -5.30855496570300E-04  1.46150571091554E-01
 cg2d: Sum(rhs),rhsMax =  -5.31185401779508E-04  1.46153264255662E-01
 cg2d: Sum(rhs),rhsMax =  -5.31513007146378E-04  1.46156229623694E-01
 cg2d: Sum(rhs),rhsMax =  -5.31838818904591E-04  1.46159318624199E-01
 cg2d: Sum(rhs),rhsMax =  -5.32163294371626E-04  1.46162395897787E-01
 cg2d: Sum(rhs),rhsMax =  -5.32486396931884E-04  1.46165461440992E-01
 cg2d: Sum(rhs),rhsMax =  -5.32808087714338E-04  1.46168515250378E-01
 cg2d: Sum(rhs),rhsMax =  -5.33128325294635E-04  1.46171557322532E-01
 cg2d: Sum(rhs),rhsMax =  -5.33447065906870E-04  1.46174587654071E-01
 cg2d: Sum(rhs),rhsMax =  -5.33764262945949E-04  1.46177606241639E-01
 cg2d: Sum(rhs),rhsMax =  -5.34079866896222E-04  1.46180613081907E-01
 cg2d: Sum(rhs),rhsMax =  -5.34393825395231E-04  1.46183608171573E-01
 cg2d: Sum(rhs),rhsMax =  -5.34706082690543E-04  1.46186591507363E-01
 cg2d: Sum(rhs),rhsMax =  -5.35016579625390E-04  1.46189563086031E-01
 cg2d: Sum(rhs),rhsMax =  -5.35325253480371E-04  1.46192522904357E-01
 cg2d: Sum(rhs),rhsMax =  -5.35632037414583E-04  1.46195470959149E-01
(PID.TID 0000.0001)      cg2d_init_res =   7.04165345044459E-04
(PID.TID 0000.0001)      cg2d_iters(min,last) =      -1      74
(PID.TID 0000.0001)      cg2d_last_res =   8.89902735831218E-08
(PID.TID 0000.0001) // =======================================================
(PID.TID 0000.0001) // Begin MONITOR dynamic field statistics
(PID.TID 0000.0001) // =======================================================
(PID.TID 0000.0001) %MON time_tsnumber                =                 13896
(PID.TID 0000.0001) %MON time_secondsf                =   1.6675200000000E+07
(PID.TID 0000.0001) %MON dynstat_eta_max              =   5.0536592489302E-02
(PID.TID 0000.0001) %MON dynstat_eta_min              =  -2.2373088496751E-02
(PID.TID 0000.0001) %MON dynstat_eta_mean             =   3.9176557721633E-07
(PID.TID 0000.0001) %MON dynstat_eta_sd               =   1.9260180213526E-02
(PID.TID 0000.0001) %MON dynstat_eta_del2             =   1.7656340444701E-05
(PID.TID 0000.0001) %MON dynstat_uvel_max             =   3.1790042809504E-02
(PID.TID 0000.0001) %MON dynstat_uvel_min             =  -1.7805248346703E-02
(PID.TID 0000.0001) %MON dynstat_uvel_mean            =  -1.8125995896628E-08
(PID.TID 0000.0001) %MON dynstat_uvel_sd              =   7.1840202928835E-03
(PID.TID 0000.0001) %MON dynstat_uvel_del2            =   8.3475796985491E-06
(PID.TID 0000.0001) %MON dynstat_vvel_max             =   8.7654561780701E-02
(PID.TID 0000.0001) %MON dynstat_vvel_min             =  -2.8180794851583E-02
(PID.TID 0000.0001) %MON dynstat_vvel_mean            =   4.9582451197873E-09
(PID.TID 0000.0001) %MON dynstat_vvel_sd              =   1.5164177178593E-02
(PID.TID 0000.0001) %MON dynstat_vvel_del2            =   7.4848462497587E-05
(PID.TID 0000.0001) %MON dynstat_wvel_max             =   6.2504680739949E-09
(PID.TID 0000.0001) %MON dynstat_wvel_min             =  -1.1682360019186E-08
(PID.TID 0000.0001) %MON dynstat_wvel_mean            =   1.5809508921747E-21
(PID.TID 0000.0001) %MON dynstat_wvel_sd              =   4.4266671628451E-09
(PID.TID 0000.0001) %MON dynstat_wvel_del2            =   1.5863238815956E-12
(PID.TID 0000.0001) %MON dynstat_theta_max            =   2.0000000000000E+01
(PID.TID 0000.0001) %MON dynstat_theta_min            =   2.0000000000000E+01
(PID.TID 0000.0001) %MON dynstat_theta_mean           =   2.0000000000000E+01
(PID.TID 0000.0001) %MON dynstat_theta_sd             =   0.0000000000000E+00
(PID.TID 0000.0001) %MON dynstat_theta_del2           =   0.0000000000000E+00
(PID.TID 0000.0001) %MON dynstat_salt_max             =   3.0000000000000E+01
(PID.TID 0000.0001) %MON dynstat_salt_min             =   3.0000000000000E+01
(PID.TID 0000.0001) %MON dynstat_salt_mean            =   3.0000000000000E+01
(PID.TID 0000.0001) %MON dynstat_salt_sd              =   0.0000000000000E+00
(PID.TID 0000.0001) %MON dynstat_salt_del2            =   0.0000000000000E+00
(PID.TID 0000.0001) %MON trAdv_CFL_u_max              =   1.9073392730815E-03
(PID.TID 0000.0001) %MON trAdv_CFL_v_max              =   5.2591499325158E-03
(PID.TID 0000.0001) %MON trAdv_CFL_w_max              =   1.5014280112926E-09
(PID.TID 0000.0001) %MON advcfl_uvel_max              =   1.9074025685702E-03
(PID.TID 0000.0001) %MON advcfl_vvel_max              =   5.2592737068421E-03
(PID.TID 0000.0001) %MON advcfl_wvel_max              =   5.6075328092091E-09
(PID.TID 0000.0001) %MON advcfl_W_hf_max              =   0.0000000000000E+00
(PID.TID 0000.0001) %MON pe_b_mean                    =   3.6390640571277E-07
(PID.TID 0000.0001) %MON ke_max                       =   3.8355214341143E-03
(PID.TID 0000.0001) %MON ke_mean                      =   1.3843485506074E-04
(PID.TID 0000.0001) %MON ke_vol                       =   7.2000000000000E+15
(PID.TID 0000.0001) %MON vort_r_min                   =  -1.5090701024775E-06
(PID.TID 0000.0001) %MON vort_r_max                   =   2.4303116682262E-06
(PID.TID 0000.0001) %MON vort_a_mean                  =   1.0600000000000E-04
(PID.TID 0000.0001) %MON vort_a_sd                    =   3.5371296191136E-06
(PID.TID 0000.0001) %MON vort_p_mean                  =   1.1130000000000E-04
(PID.TID 0000.0001) %MON vort_p_sd                    =   4.1152648975581E-05
(PID.TID 0000.0001) %MON surfExpan_theta_mean         =   3.1599098646337E-20
(PID.TID 0000.0001) %MON surfExpan_salt_mean          =   4.7395726849370E-20
(PID.TID 0000.0001) // =======================================================
(PID.TID 0000.0001) // End MONITOR dynamic field statistics
(PID.TID 0000.0001) // =======================================================
 cg2d: Sum(rhs),rhsMax =  -5.35936860854212E-04  1.46198407247243E-01
 cg2d: Sum(rhs),rhsMax =  -5.36239648619908E-04  1.46201331765501E-01
 cg2d: Sum(rhs),rhsMax =  -5.36540321289608E-04  1.46204244510815E-01
 cg2d: Sum(rhs),rhsMax =  -5.36899505736895E-04  1.46207145584830E-01
 cg2d: Sum(rhs),rhsMax =  -5.37255850810422E-04  1.46210034761762E-01
 cg2d: Sum(rhs),rhsMax =  -5.37609278360039E-04  1.46212912172362E-01
 cg2d: Sum(rhs),rhsMax =  -5.37959631254693E-04  1.46215777795615E-01
 cg2d: Sum(rhs),rhsMax =  -5.38306772994333E-04  1.46218631630153E-01
 cg2d: Sum(rhs),rhsMax =  -5.38650565500597E-04  1.46221473673284E-01
 cg2d: Sum(rhs),rhsMax =  -5.38990865644919E-04  1.46224303922625E-01
 cg2d: Sum(rhs),rhsMax =  -5.39327520659933E-04  1.46227122374849E-01
 cg2d: Sum(rhs),rhsMax =  -5.39660366550170E-04  1.46229929026791E-01
 cg2d: Sum(rhs),rhsMax =  -5.39989228627637E-04  1.46232723875664E-01
 cg2d: Sum(rhs),rhsMax =  -5.40313922734612E-04  1.46235506918982E-01
 cg2d: Sum(rhs),rhsMax =  -5.40634256694099E-04  1.46238278154316E-01
 cg2d: Sum(rhs),rhsMax =  -5.40950030563110E-04  1.46241037579123E-01
 cg2d: Sum(rhs),rhsMax =  -5.41261036970432E-04  1.46243785190693E-01
 cg2d: Sum(rhs),rhsMax =  -5.41567060598718E-04  1.46246520986208E-01
 cg2d: Sum(rhs),rhsMax =  -5.41867878174820E-04  1.46249244962818E-01
 cg2d: Sum(rhs),rhsMax =  -5.42163258684647E-04  1.46251957117726E-01
 cg2d: Sum(rhs),rhsMax =  -5.42452964352487E-04  1.46254657448232E-01
 cg2d: Sum(rhs),rhsMax =  -5.42736751491559E-04  1.46257345951731E-01
 cg2d: Sum(rhs),rhsMax =  -5.43014372826597E-04  1.46260022625701E-01
 cg2d: Sum(rhs),rhsMax =  -5.43285578649006E-04  1.46262687467668E-01
 cg2d: Sum(rhs),rhsMax =  -5.43550120059483E-04  1.46265340475179E-01
 cg2d: Sum(rhs),rhsMax =  -5.43807751385683E-04  1.46267981645788E-01
 cg2d: Sum(rhs),rhsMax =  -5.44058233919522E-04  1.46270610977050E-01
 cg2d: Sum(rhs),rhsMax =  -5.44356756303143E-04  1.46273228630824E-01
 cg2d: Sum(rhs),rhsMax =  -5.44645786893073E-04  1.46275834248282E-01
 cg2d: Sum(rhs),rhsMax =  -5.44925078898479E-04  1.46278428046259E-01
 cg2d: Sum(rhs),rhsMax =  -5.45194501167780E-04  1.46281009995821E-01
 cg2d: Sum(rhs),rhsMax =  -5.45453956508843E-04  1.46283580092453E-01
 cg2d: Sum(rhs),rhsMax =  -5.45703393518798E-04  1.46286138335129E-01
 cg2d: Sum(rhs),rhsMax =  -5.45942811888070E-04  1.46288684721486E-01
 cg2d: Sum(rhs),rhsMax =  -5.46172271164718E-04  1.46291219248855E-01
 cg2d: Sum(rhs),rhsMax =  -5.46391904132009E-04  1.46293741914932E-01
 cg2d: Sum(rhs),rhsMax =  -5.46642425668607E-04  1.46296252580077E-01
 cg2d: Sum(rhs),rhsMax =  -5.46881945926717E-04  1.46298751504720E-01
 cg2d: Sum(rhs),rhsMax =  -5.47111063533597E-04  1.46301238585850E-01
 cg2d: Sum(rhs),rhsMax =  -5.47330441975059E-04  1.46303713792882E-01
 cg2d: Sum(rhs),rhsMax =  -5.47540890652326E-04  1.46306177129827E-01
 cg2d: Sum(rhs),rhsMax =  -5.47743328400656E-04  1.46308628593610E-01
 cg2d: Sum(rhs),rhsMax =  -5.47938773401958E-04  1.46311068182024E-01
 cg2d: Sum(rhs),rhsMax =  -5.48128334925102E-04  1.46313495892361E-01
 cg2d: Sum(rhs),rhsMax =  -5.48313205919048E-04  1.46315911722516E-01
 cg2d: Sum(rhs),rhsMax =  -5.48494653285065E-04  1.46318315670771E-01
 cg2d: Sum(rhs),rhsMax =  -5.48674003582025E-04  1.46320707735633E-01
 cg2d: Sum(rhs),rhsMax =  -5.48852624132150E-04  1.46323087915606E-01
 cg2d: Sum(rhs),rhsMax =  -5.49031899815406E-04  1.46325456209053E-01
 cg2d: Sum(rhs),rhsMax =  -5.49213207528142E-04  1.46327812614162E-01
 cg2d: Sum(rhs),rhsMax =  -5.49397890168676E-04  1.46330157128983E-01
 cg2d: Sum(rhs),rhsMax =  -5.49587233485373E-04  1.46332489751508E-01
 cg2d: Sum(rhs),rhsMax =  -5.49782445259766E-04  1.46334810479744E-01
 cg2d: Sum(rhs),rhsMax =  -5.49984638502191E-04  1.46337119311763E-01
 cg2d: Sum(rhs),rhsMax =  -5.50194819593721E-04  1.46339416245734E-01
 cg2d: Sum(rhs),rhsMax =  -5.50413878967835E-04  1.46341701279923E-01
 cg2d: Sum(rhs),rhsMax =  -5.50642586791792E-04  1.46343974412670E-01
 cg2d: Sum(rhs),rhsMax =  -5.50881591004900E-04  1.46346235642369E-01
 cg2d: Sum(rhs),rhsMax =  -5.51131418408819E-04  1.46348484967444E-01
 cg2d: Sum(rhs),rhsMax =  -5.51392478042982E-04  1.46350722386332E-01
 cg2d: Sum(rhs),rhsMax =  -5.51622429163023E-04  1.46352948039592E-01
 cg2d: Sum(rhs),rhsMax =  -5.51862503359657E-04  1.46355161649152E-01
 cg2d: Sum(rhs),rhsMax =  -5.52112701833860E-04  1.46357363344846E-01
 cg2d: Sum(rhs),rhsMax =  -5.52372998372903E-04  1.46359553127702E-01
 cg2d: Sum(rhs),rhsMax =  -5.52643290389000E-04  1.46361730997115E-01
 cg2d: Sum(rhs),rhsMax =  -5.52923428380761E-04  1.46363896950873E-01
 cg2d: Sum(rhs),rhsMax =  -5.53213227899296E-04  1.46366050987457E-01
 cg2d: Sum(rhs),rhsMax =  -5.53512476095365E-04  1.46368193105889E-01
 cg2d: Sum(rhs),rhsMax =  -5.53820935197548E-04  1.46370323305331E-01
 cg2d: Sum(rhs),rhsMax =  -5.54138344677653E-04  1.46372441584835E-01
 cg2d: Sum(rhs),rhsMax =  -5.54464425340321E-04  1.46374547943276E-01
 cg2d: Sum(rhs),rhsMax =  -5.54738971075192E-04  1.46376642213575E-01
(PID.TID 0000.0001)      cg2d_init_res =   6.94388195141711E-04
(PID.TID 0000.0001)      cg2d_iters(min,last) =      -1      73
(PID.TID 0000.0001)      cg2d_last_res =   8.78296328636111E-08
(PID.TID 0000.0001) // =======================================================
(PID.TID 0000.0001) // Begin MONITOR dynamic field statistics
(PID.TID 0000.0001) // =======================================================
(PID.TID 0000.0001) %MON time_tsnumber                =                 13968
(PID.TID 0000.0001) %MON time_secondsf                =   1.6761600000000E+07
(PID.TID 0000.0001) %MON dynstat_eta_max              =   5.0943840314200E-02
(PID.TID 0000.0001) %MON dynstat_eta_min              =  -2.2071859438318E-02
(PID.TID 0000.0001) %MON dynstat_eta_mean             =   4.0621563079988E-07
(PID.TID 0000.0001) %MON dynstat_eta_sd               =   1.9168041972406E-02
(PID.TID 0000.0001) %MON dynstat_eta_del2             =   1.7693324143048E-05
(PID.TID 0000.0001) %MON dynstat_uvel_max             =   3.1861361017640E-02
(PID.TID 0000.0001) %MON dynstat_uvel_min             =  -1.7831388527083E-02
(PID.TID 0000.0001) %MON dynstat_uvel_mean            =   4.4969122632092E-09
(PID.TID 0000.0001) %MON dynstat_uvel_sd              =   7.1205945364112E-03
(PID.TID 0000.0001) %MON dynstat_uvel_del2            =   8.3076977803567E-06
(PID.TID 0000.0001) %MON dynstat_vvel_max             =   8.7785156108627E-02
(PID.TID 0000.0001) %MON dynstat_vvel_min             =  -2.8257346671229E-02
(PID.TID 0000.0001) %MON dynstat_vvel_mean            =   5.1752878681592E-09
(PID.TID 0000.0001) %MON dynstat_vvel_sd              =   1.5197857334848E-02
(PID.TID 0000.0001) %MON dynstat_vvel_del2            =   7.5017074249530E-05
(PID.TID 0000.0001) %MON dynstat_wvel_max             =   5.8245586254634E-09
(PID.TID 0000.0001) %MON dynstat_wvel_min             =  -1.1687265211658E-08
(PID.TID 0000.0001) %MON dynstat_wvel_mean            =   1.4836819496446E-21
(PID.TID 0000.0001) %MON dynstat_wvel_sd              =   4.4113935342909E-09
(PID.TID 0000.0001) %MON dynstat_wvel_del2            =   1.5676844325520E-12
(PID.TID 0000.0001) %MON dynstat_theta_max            =   2.0000000000000E+01
(PID.TID 0000.0001) %MON dynstat_theta_min            =   2.0000000000000E+01
(PID.TID 0000.0001) %MON dynstat_theta_mean           =   2.0000000000000E+01
(PID.TID 0000.0001) %MON dynstat_theta_sd             =   0.0000000000000E+00
(PID.TID 0000.0001) %MON dynstat_theta_del2           =   0.0000000000000E+00
(PID.TID 0000.0001) %MON dynstat_salt_max             =   3.0000000000000E+01
(PID.TID 0000.0001) %MON dynstat_salt_min             =   3.0000000000000E+01
(PID.TID 0000.0001) %MON dynstat_salt_mean            =   3.0000000000000E+01
(PID.TID 0000.0001) %MON dynstat_salt_sd              =   0.0000000000000E+00
(PID.TID 0000.0001) %MON dynstat_salt_del2            =   0.0000000000000E+00
(PID.TID 0000.0001) %MON trAdv_CFL_u_max              =   1.9116260635631E-03
(PID.TID 0000.0001) %MON trAdv_CFL_v_max              =   5.2670152059610E-03
(PID.TID 0000.0001) %MON trAdv_CFL_w_max              =   1.3993446234148E-09
(PID.TID 0000.0001) %MON advcfl_uvel_max              =   1.9116816610584E-03
(PID.TID 0000.0001) %MON advcfl_vvel_max              =   5.2671093665176E-03
(PID.TID 0000.0001) %MON advcfl_wvel_max              =   5.6098873015959E-09
(PID.TID 0000.0001) %MON advcfl_W_hf_max              =   0.0000000000000E+00
(PID.TID 0000.0001) %MON pe_b_mean                    =   3.6043297038974E-07
(PID.TID 0000.0001) %MON ke_max                       =   3.8477843456295E-03
(PID.TID 0000.0001) %MON ke_mean                      =   1.3849155261018E-04
(PID.TID 0000.0001) %MON ke_vol                       =   7.2000000000000E+15
(PID.TID 0000.0001) %MON vort_r_min                   =  -1.5120017221278E-06
(PID.TID 0000.0001) %MON vort_r_max                   =   2.4316014492318E-06
(PID.TID 0000.0001) %MON vort_a_mean                  =   1.0600000000000E-04
(PID.TID 0000.0001) %MON vort_a_sd                    =   3.5371975204545E-06
(PID.TID 0000.0001) %MON vort_p_mean                  =   1.1130000000000E-04
(PID.TID 0000.0001) %MON vort_p_sd                    =   4.1152567913217E-05
(PID.TID 0000.0001) %MON surfExpan_theta_mean         =   2.9652211550355E-20
(PID.TID 0000.0001) %MON surfExpan_salt_mean          =   4.4478791020689E-20
(PID.TID 0000.0001) // =======================================================
(PID.TID 0000.0001) // End MONITOR dynamic field statistics
(PID.TID 0000.0001) // =======================================================
 cg2d: Sum(rhs),rhsMax =  -5.55020043420618E-04  1.46378724744253E-01
 cg2d: Sum(rhs),rhsMax =  -5.55307403081366E-04  1.46380795339542E-01
 cg2d: Sum(rhs),rhsMax =  -5.55600769347543E-04  1.46382854004202E-01
 cg2d: Sum(rhs),rhsMax =  -5.55899877539021E-04  1.46384900743116E-01
 cg2d: Sum(rhs),rhsMax =  -5.56204470960296E-04  1.46386935552585E-01
 cg2d: Sum(rhs),rhsMax =  -5.56514305077750E-04  1.46388958431048E-01
 cg2d: Sum(rhs),rhsMax =  -5.56829146800958E-04  1.46390969377936E-01
 cg2d: Sum(rhs),rhsMax =  -5.57148773952214E-04  1.46392968393163E-01
 cg2d: Sum(rhs),rhsMax =  -5.57472973151630E-04  1.46394955476483E-01
 cg2d: Sum(rhs),rhsMax =  -5.57801538880152E-04  1.46396930627291E-01
 cg2d: Sum(rhs),rhsMax =  -5.58134272784424E-04  1.46398893844662E-01
 cg2d: Sum(rhs),rhsMax =  -5.58470983720903E-04  1.46400845127496E-01
 cg2d: Sum(rhs),rhsMax =  -5.58811488689611E-04  1.46402784474660E-01
 cg2d: Sum(rhs),rhsMax =  -5.59155613055835E-04  1.46404711885081E-01
 cg2d: Sum(rhs),rhsMax =  -5.59503190718101E-04  1.46406627357792E-01
 cg2d: Sum(rhs),rhsMax =  -5.59854064062465E-04  1.46408530891948E-01
 cg2d: Sum(rhs),rhsMax =  -5.60208083844174E-04  1.46410422486812E-01
 cg2d: Sum(rhs),rhsMax =  -5.60565108466033E-04  1.46412302141725E-01
 cg2d: Sum(rhs),rhsMax =  -5.60925003686553E-04  1.46414169856075E-01
 cg2d: Sum(rhs),rhsMax =  -5.61287642079096E-04  1.46416025629263E-01
 cg2d: Sum(rhs),rhsMax =  -5.61652902337385E-04  1.46417869460687E-01
 cg2d: Sum(rhs),rhsMax =  -5.62020669755709E-04  1.46419701349737E-01
 cg2d: Sum(rhs),rhsMax =  -5.62390835265371E-04  1.46421521295796E-01
 cg2d: Sum(rhs),rhsMax =  -5.62763295295232E-04  1.46423329298261E-01
 cg2d: Sum(rhs),rhsMax =  -5.63074091205521E-04  1.46425125247812E-01
 cg2d: Sum(rhs),rhsMax =  -5.63386567340920E-04  1.46426909368247E-01
 cg2d: Sum(rhs),rhsMax =  -5.63700613477747E-04  1.46428681543923E-01
 cg2d: Sum(rhs),rhsMax =  -5.64016196931978E-04  1.46430441771213E-01
 cg2d: Sum(rhs),rhsMax =  -5.64333264290801E-04  1.46432190053328E-01
 cg2d: Sum(rhs),rhsMax =  -5.64651755830972E-04  1.46433926388454E-01
 cg2d: Sum(rhs),rhsMax =  -5.64971609723497E-04  1.46435650775058E-01
 cg2d: Sum(rhs),rhsMax =  -5.65292766795167E-04  1.46437363213050E-01
 cg2d: Sum(rhs),rhsMax =  -5.65615173199404E-04  1.46439063702965E-01
 cg2d: Sum(rhs),rhsMax =  -5.65938779926086E-04  1.46440752245230E-01
 cg2d: Sum(rhs),rhsMax =  -5.66263541967203E-04  1.46442428839890E-01
 cg2d: Sum(rhs),rhsMax =  -5.66589416591790E-04  1.46444093486679E-01
 cg2d: Sum(rhs),rhsMax =  -5.66916362360117E-04  1.46445746185196E-01
 cg2d: Sum(rhs),rhsMax =  -5.67244339208012E-04  1.46447386935039E-01
 cg2d: Sum(rhs),rhsMax =  -5.67573308303270E-04  1.46449015735878E-01
 cg2d: Sum(rhs),rhsMax =  -5.67903232614130E-04  1.46450632587474E-01
 cg2d: Sum(rhs),rhsMax =  -5.68234077038195E-04  1.46452237489672E-01
 cg2d: Sum(rhs),rhsMax =  -5.68565808199729E-04  1.46453830442385E-01
 cg2d: Sum(rhs),rhsMax =  -5.68898394217506E-04  1.46455411445584E-01
 cg2d: Sum(rhs),rhsMax =  -5.69231804855991E-04  1.46456980499277E-01
 cg2d: Sum(rhs),rhsMax =  -5.69566011082876E-04  1.46458537603498E-01
 cg2d: Sum(rhs),rhsMax =  -5.69900984980207E-04  1.46460082758297E-01
 cg2d: Sum(rhs),rhsMax =  -5.70236699905553E-04  1.46461615963730E-01
 cg2d: Sum(rhs),rhsMax =  -5.70573130141623E-04  1.46463137219867E-01
 cg2d: Sum(rhs),rhsMax =  -5.70910251047448E-04  1.46464646526786E-01
 cg2d: Sum(rhs),rhsMax =  -5.71248039180295E-04  1.46466143884589E-01
 cg2d: Sum(rhs),rhsMax =  -5.71586471693713E-04  1.46467629293408E-01
 cg2d: Sum(rhs),rhsMax =  -5.71925526933970E-04  1.46469102753408E-01
 cg2d: Sum(rhs),rhsMax =  -5.72265183976259E-04  1.46470564264788E-01
 cg2d: Sum(rhs),rhsMax =  -5.72605422602415E-04  1.46472013827783E-01
 cg2d: Sum(rhs),rhsMax =  -5.72946223437827E-04  1.46473451442656E-01
 cg2d: Sum(rhs),rhsMax =  -5.73287567869153E-04  1.46474877109701E-01
 cg2d: Sum(rhs),rhsMax =  -5.73629437860379E-04  1.46476290829232E-01
 cg2d: Sum(rhs),rhsMax =  -5.73971816067425E-04  1.46477692601591E-01
 cg2d: Sum(rhs),rhsMax =  -5.74314685719130E-04  1.46479082427140E-01
 cg2d: Sum(rhs),rhsMax =  -5.74658030599370E-04  1.46480460306268E-01
 cg2d: Sum(rhs),rhsMax =  -5.75001835163947E-04  1.46481826239391E-01
 cg2d: Sum(rhs),rhsMax =  -5.75346084170562E-04  1.46483180226949E-01
 cg2d: Sum(rhs),rhsMax =  -5.75690763145207E-04  1.46484522269413E-01
 cg2d: Sum(rhs),rhsMax =  -5.76035857909242E-04  1.46485852367281E-01
 cg2d: Sum(rhs),rhsMax =  -5.76381354722268E-04  1.46487170521077E-01
 cg2d: Sum(rhs),rhsMax =  -5.76727240324775E-04  1.46488476731356E-01
 cg2d: Sum(rhs),rhsMax =  -5.77073501969862E-04  1.46489770998696E-01
 cg2d: Sum(rhs),rhsMax =  -5.77420127078312E-04  1.46491053323703E-01
 cg2d: Sum(rhs),rhsMax =  -5.77767103512932E-04  1.46492323707010E-01
 cg2d: Sum(rhs),rhsMax =  -5.78114419610294E-04  1.46493582149276E-01
 cg2d: Sum(rhs),rhsMax =  -5.78462063924241E-04  1.46494828651186E-01
 cg2d: Sum(rhs),rhsMax =  -5.78810025287859E-04  1.46496063213452E-01
(PID.TID 0000.0001)      cg2d_init_res =   6.85693928812373E-04
(PID.TID 0000.0001)      cg2d_iters(min,last) =      -1      74
(PID.TID 0000.0001)      cg2d_last_res =   9.55560038696225E-08
(PID.TID 0000.0001) // =======================================================
(PID.TID 0000.0001) // Begin MONITOR dynamic field statistics
(PID.TID 0000.0001) // =======================================================
(PID.TID 0000.0001) %MON time_tsnumber                =                 14040
(PID.TID 0000.0001) %MON time_secondsf                =   1.6848000000000E+07
(PID.TID 0000.0001) %MON dynstat_eta_max              =   5.1303157229422E-02
(PID.TID 0000.0001) %MON dynstat_eta_min              =  -2.1769755659695E-02
(PID.TID 0000.0001) %MON dynstat_eta_mean             =   4.2422558999852E-07
(PID.TID 0000.0001) %MON dynstat_eta_sd               =   1.9052697166433E-02
(PID.TID 0000.0001) %MON dynstat_eta_del2             =   1.7729986529102E-05
(PID.TID 0000.0001) %MON dynstat_uvel_max             =   3.1923181355350E-02
(PID.TID 0000.0001) %MON dynstat_uvel_min             =  -1.7843372533979E-02
(PID.TID 0000.0001) %MON dynstat_uvel_mean            =   2.6686422637084E-08
(PID.TID 0000.0001) %MON dynstat_uvel_sd              =   7.0533546857869E-03
(PID.TID 0000.0001) %MON dynstat_uvel_del2            =   8.2673333860419E-06
(PID.TID 0000.0001) %MON dynstat_vvel_max             =   8.7879800578074E-02
(PID.TID 0000.0001) %MON dynstat_vvel_min             =  -2.8354344579111E-02
(PID.TID 0000.0001) %MON dynstat_vvel_mean            =   5.3071016960814E-09
(PID.TID 0000.0001) %MON dynstat_vvel_sd              =   1.5225398551408E-02
(PID.TID 0000.0001) %MON dynstat_vvel_del2            =   7.5170490455014E-05
(PID.TID 0000.0001) %MON dynstat_wvel_max             =   5.4048028736725E-09
(PID.TID 0000.0001) %MON dynstat_wvel_min             =  -1.1645115725114E-08
(PID.TID 0000.0001) %MON dynstat_wvel_mean            =   3.3658794665017E-22
(PID.TID 0000.0001) %MON dynstat_wvel_sd              =   4.3990035989130E-09
(PID.TID 0000.0001) %MON dynstat_wvel_del2            =   1.5508080006174E-12
(PID.TID 0000.0001) %MON dynstat_theta_max            =   2.0000000000000E+01
(PID.TID 0000.0001) %MON dynstat_theta_min            =   2.0000000000000E+01
(PID.TID 0000.0001) %MON dynstat_theta_mean           =   2.0000000000000E+01
(PID.TID 0000.0001) %MON dynstat_theta_sd             =   0.0000000000000E+00
(PID.TID 0000.0001) %MON dynstat_theta_del2           =   0.0000000000000E+00
(PID.TID 0000.0001) %MON dynstat_salt_max             =   3.0000000000000E+01
(PID.TID 0000.0001) %MON dynstat_salt_min             =   3.0000000000000E+01
(PID.TID 0000.0001) %MON dynstat_salt_mean            =   3.0000000000000E+01
(PID.TID 0000.0001) %MON dynstat_salt_sd              =   0.0000000000000E+00
(PID.TID 0000.0001) %MON dynstat_salt_del2            =   0.0000000000000E+00
(PID.TID 0000.0001) %MON trAdv_CFL_u_max              =   1.9153433916463E-03
(PID.TID 0000.0001) %MON trAdv_CFL_v_max              =   5.2727241070435E-03
(PID.TID 0000.0001) %MON trAdv_CFL_w_max              =   1.2984790287679E-09
(PID.TID 0000.0001) %MON advcfl_uvel_max              =   1.9153908813210E-03
(PID.TID 0000.0001) %MON advcfl_vvel_max              =   5.2727880346844E-03
(PID.TID 0000.0001) %MON advcfl_wvel_max              =   5.5896555480547E-09
(PID.TID 0000.0001) %MON advcfl_W_hf_max              =   0.0000000000000E+00
(PID.TID 0000.0001) %MON pe_b_mean                    =   3.5610816937535E-07
(PID.TID 0000.0001) %MON ke_max                       =   3.8569093584523E-03
(PID.TID 0000.0001) %MON ke_mean                      =   1.3843493190862E-04
(PID.TID 0000.0001) %MON ke_vol                       =   7.2000000000000E+15
(PID.TID 0000.0001) %MON vort_r_min                   =  -1.5148457821470E-06
(PID.TID 0000.0001) %MON vort_r_max                   =   2.4317796083027E-06
(PID.TID 0000.0001) %MON vort_a_mean                  =   1.0600000000000E-04
(PID.TID 0000.0001) %MON vort_a_sd                    =   3.5372568888055E-06
(PID.TID 0000.0001) %MON vort_p_mean                  =   1.1130000000000E-04
(PID.TID 0000.0001) %MON vort_p_sd                    =   4.1152482137782E-05
(PID.TID 0000.0001) %MON surfExpan_theta_mean         =   6.7259975367051E-21
(PID.TID 0000.0001) %MON surfExpan_salt_mean          =   1.0089627898601E-20
(PID.TID 0000.0001) // =======================================================
(PID.TID 0000.0001) // End MONITOR dynamic field statistics
(PID.TID 0000.0001) // =======================================================
 cg2d: Sum(rhs),rhsMax =  -5.79158293032129E-04  1.46497285836813E-01
 cg2d: Sum(rhs),rhsMax =  -5.79506856681409E-04  1.46498496522034E-01
 cg2d: Sum(rhs),rhsMax =  -5.79855705893477E-04  1.46499695269909E-01
 cg2d: Sum(rhs),rhsMax =  -5.80204830930922E-04  1.46500882081254E-01
 cg2d: Sum(rhs),rhsMax =  -5.80554222084842E-04  1.46502056956919E-01
 cg2d: Sum(rhs),rhsMax =  -5.80903869759619E-04  1.46503219897774E-01
 cg2d: Sum(rhs),rhsMax =  -5.81253764818919E-04  1.46504370904719E-01
 cg2d: Sum(rhs),rhsMax =  -5.81603898385227E-04  1.46505509978682E-01
 cg2d: Sum(rhs),rhsMax =  -5.81954261736097E-04  1.46506637120614E-01
 cg2d: Sum(rhs),rhsMax =  -5.82304846250217E-04  1.46507752331494E-01
 cg2d: Sum(rhs),rhsMax =  -5.82655643530585E-04  1.46508855612329E-01
 cg2d: Sum(rhs),rhsMax =  -5.83006645637077E-04  1.46509946964152E-01
 cg2d: Sum(rhs),rhsMax =  -5.83357844375475E-04  1.46511026388020E-01
 cg2d: Sum(rhs),rhsMax =  -5.83709232254261E-04  1.46512093885022E-01
 cg2d: Sum(rhs),rhsMax =  -5.84060801458533E-04  1.46513149456269E-01
 cg2d: Sum(rhs),rhsMax =  -5.84412544605158E-04  1.46514193102901E-01
 cg2d: Sum(rhs),rhsMax =  -5.84764454471378E-04  1.46515224826083E-01
 cg2d: Sum(rhs),rhsMax =  -5.85116523956116E-04  1.46516244627008E-01
 cg2d: Sum(rhs),rhsMax =  -5.85468745989927E-04  1.46517252506895E-01
 cg2d: Sum(rhs),rhsMax =  -5.85821113868652E-04  1.46518248466990E-01
 cg2d: Sum(rhs),rhsMax =  -5.86173620858915E-04  1.46519232508564E-01
 cg2d: Sum(rhs),rhsMax =  -5.86526260329341E-04  1.46520204632918E-01
 cg2d: Sum(rhs),rhsMax =  -5.86879025898651E-04  1.46521164841375E-01
 cg2d: Sum(rhs),rhsMax =  -5.87231911357422E-04  1.46522113135287E-01
 cg2d: Sum(rhs),rhsMax =  -5.87584910483362E-04  1.46523049516034E-01
 cg2d: Sum(rhs),rhsMax =  -5.87938017194122E-04  1.46523973985020E-01
 cg2d: Sum(rhs),rhsMax =  -5.88291225539078E-04  1.46524886543677E-01
 cg2d: Sum(rhs),rhsMax =  -5.88644529796136E-04  1.46525787193462E-01
 cg2d: Sum(rhs),rhsMax =  -5.88997924074972E-04  1.46526675935859E-01
 cg2d: Sum(rhs),rhsMax =  -5.89351402966167E-04  1.46527552772381E-01
 cg2d: Sum(rhs),rhsMax =  -5.89704960784542E-04  1.46528417704564E-01
 cg2d: Sum(rhs),rhsMax =  -5.90058592172268E-04  1.46529270733973E-01
 cg2d: Sum(rhs),rhsMax =  -5.90412291747559E-04  1.46530111862196E-01
 cg2d: Sum(rhs),rhsMax =  -5.90766054393533E-04  1.46530941090853E-01
 cg2d: Sum(rhs),rhsMax =  -5.91119875013073E-04  1.46531758421585E-01
 cg2d: Sum(rhs),rhsMax =  -5.91473748365656E-04  1.46532563856062E-01
 cg2d: Sum(rhs),rhsMax =  -5.91827669594099E-04  1.46533357395980E-01
 cg2d: Sum(rhs),rhsMax =  -5.92181633834780E-04  1.46534139043063E-01
 cg2d: Sum(rhs),rhsMax =  -5.92535636248233E-04  1.46534908799057E-01
 cg2d: Sum(rhs),rhsMax =  -5.92889672150721E-04  1.46535666665739E-01
 cg2d: Sum(rhs),rhsMax =  -5.93243736810026E-04  1.46536412644912E-01
 cg2d: Sum(rhs),rhsMax =  -5.93597825779092E-04  1.46537146738401E-01
 cg2d: Sum(rhs),rhsMax =  -5.93951934449189E-04  1.46537868948063E-01
 cg2d: Sum(rhs),rhsMax =  -5.94306058435684E-04  1.46538579275777E-01
 cg2d: Sum(rhs),rhsMax =  -5.94660193373754E-04  1.46539277723450E-01
 cg2d: Sum(rhs),rhsMax =  -5.95014335068578E-04  1.46539964293016E-01
 cg2d: Sum(rhs),rhsMax =  -5.95368479095449E-04  1.46540638986435E-01
 cg2d: Sum(rhs),rhsMax =  -5.95722621569024E-04  1.46541301805692E-01
 cg2d: Sum(rhs),rhsMax =  -5.96076758273454E-04  1.46541952752800E-01
 cg2d: Sum(rhs),rhsMax =  -5.96430884981264E-04  1.46542591829797E-01
 cg2d: Sum(rhs),rhsMax =  -5.96784998041689E-04  1.46543219038747E-01
 cg2d: Sum(rhs),rhsMax =  -5.97139093384006E-04  1.46543834381743E-01
 cg2d: Sum(rhs),rhsMax =  -5.97493167190352E-04  1.46544437860900E-01
 cg2d: Sum(rhs),rhsMax =  -5.97847215675424E-04  1.46545029478363E-01
 cg2d: Sum(rhs),rhsMax =  -5.98201234963127E-04  1.46545609236301E-01
 cg2d: Sum(rhs),rhsMax =  -5.98555221596830E-04  1.46546177136911E-01
 cg2d: Sum(rhs),rhsMax =  -5.98909171797646E-04  1.46546733182413E-01
 cg2d: Sum(rhs),rhsMax =  -5.99263081993141E-04  1.46547277375057E-01
 cg2d: Sum(rhs),rhsMax =  -5.99616948824507E-04  1.46547809717118E-01
 cg2d: Sum(rhs),rhsMax =  -5.99970768597930E-04  1.46548330210894E-01
 cg2d: Sum(rhs),rhsMax =  -6.00324538074554E-04  1.46548838858713E-01
 cg2d: Sum(rhs),rhsMax =  -6.00678253785344E-04  1.46549335662929E-01
 cg2d: Sum(rhs),rhsMax =  -6.01031912422793E-04  1.46549820625919E-01
 cg2d: Sum(rhs),rhsMax =  -6.01385510601168E-04  1.46550293750090E-01
 cg2d: Sum(rhs),rhsMax =  -6.01739045196318E-04  1.46550755037872E-01
 cg2d: Sum(rhs),rhsMax =  -6.02092513095467E-04  1.46551204491723E-01
 cg2d: Sum(rhs),rhsMax =  -6.02445910907408E-04  1.46551642114125E-01
 cg2d: Sum(rhs),rhsMax =  -6.02799235803716E-04  1.46552067907589E-01
 cg2d: Sum(rhs),rhsMax =  -6.03152484554573E-04  1.46552481874649E-01
 cg2d: Sum(rhs),rhsMax =  -6.03505654270058E-04  1.46552884017868E-01
 cg2d: Sum(rhs),rhsMax =  -6.03858741839243E-04  1.46553274339833E-01
 cg2d: Sum(rhs),rhsMax =  -6.04211744418518E-04  1.46553652843156E-01
(PID.TID 0000.0001)      cg2d_init_res =   6.78145667615560E-04
(PID.TID 0000.0001)      cg2d_iters(min,last) =      -1      74
(PID.TID 0000.0001)      cg2d_last_res =   9.76532890144073E-08
(PID.TID 0000.0001) // =======================================================
(PID.TID 0000.0001) // Begin MONITOR dynamic field statistics
(PID.TID 0000.0001) // =======================================================
(PID.TID 0000.0001) %MON time_tsnumber                =                 14112
(PID.TID 0000.0001) %MON time_secondsf                =   1.6934400000000E+07
(PID.TID 0000.0001) %MON dynstat_eta_max              =   5.1610725029863E-02
(PID.TID 0000.0001) %MON dynstat_eta_min              =  -2.1470677650442E-02
(PID.TID 0000.0001) %MON dynstat_eta_mean             =   4.4300690423299E-07
(PID.TID 0000.0001) %MON dynstat_eta_sd               =   1.8915692562933E-02
(PID.TID 0000.0001) %MON dynstat_eta_del2             =   1.7765935779533E-05
(PID.TID 0000.0001) %MON dynstat_uvel_max             =   3.1975078283068E-02
(PID.TID 0000.0001) %MON dynstat_uvel_min             =  -1.7839931480524E-02
(PID.TID 0000.0001) %MON dynstat_uvel_mean            =   4.8091368073664E-08
(PID.TID 0000.0001) %MON dynstat_uvel_sd              =   6.9831364299015E-03
(PID.TID 0000.0001) %MON dynstat_uvel_del2            =   8.2268887829451E-06
(PID.TID 0000.0001) %MON dynstat_vvel_max             =   8.7937974969088E-02
(PID.TID 0000.0001) %MON dynstat_vvel_min             =  -2.8470212494183E-02
(PID.TID 0000.0001) %MON dynstat_vvel_mean            =   5.3245529514840E-09
(PID.TID 0000.0001) %MON dynstat_vvel_sd              =   1.5246676924036E-02
(PID.TID 0000.0001) %MON dynstat_vvel_del2            =   7.5307491985011E-05
(PID.TID 0000.0001) %MON dynstat_wvel_max             =   4.9822625893285E-09
(PID.TID 0000.0001) %MON dynstat_wvel_min             =  -1.1571589939995E-08
(PID.TID 0000.0001) %MON dynstat_wvel_mean            =   2.7850400227989E-21
(PID.TID 0000.0001) %MON dynstat_wvel_sd              =   4.3887140787322E-09
(PID.TID 0000.0001) %MON dynstat_wvel_del2            =   1.5316577928254E-12
(PID.TID 0000.0001) %MON dynstat_theta_max            =   2.0000000000000E+01
(PID.TID 0000.0001) %MON dynstat_theta_min            =   2.0000000000000E+01
(PID.TID 0000.0001) %MON dynstat_theta_mean           =   2.0000000000000E+01
(PID.TID 0000.0001) %MON dynstat_theta_sd             =   0.0000000000000E+00
(PID.TID 0000.0001) %MON dynstat_theta_del2           =   0.0000000000000E+00
(PID.TID 0000.0001) %MON dynstat_salt_max             =   3.0000000000000E+01
(PID.TID 0000.0001) %MON dynstat_salt_min             =   3.0000000000000E+01
(PID.TID 0000.0001) %MON dynstat_salt_mean            =   3.0000000000000E+01
(PID.TID 0000.0001) %MON dynstat_salt_sd              =   0.0000000000000E+00
(PID.TID 0000.0001) %MON dynstat_salt_del2            =   0.0000000000000E+00
(PID.TID 0000.0001) %MON trAdv_CFL_u_max              =   1.9184656159049E-03
(PID.TID 0000.0001) %MON trAdv_CFL_v_max              =   5.2762450570236E-03
(PID.TID 0000.0001) %MON trAdv_CFL_w_max              =   1.1972281047609E-09
(PID.TID 0000.0001) %MON advcfl_uvel_max              =   1.9185046969841E-03
(PID.TID 0000.0001) %MON advcfl_vvel_max              =   5.2762784981453E-03
(PID.TID 0000.0001) %MON advcfl_wvel_max              =   5.5543631711975E-09
(PID.TID 0000.0001) %MON advcfl_W_hf_max              =   0.0000000000000E+00
(PID.TID 0000.0001) %MON pe_b_mean                    =   3.5100516025035E-07
(PID.TID 0000.0001) %MON ke_max                       =   3.8628370192969E-03
(PID.TID 0000.0001) %MON ke_mean                      =   1.3826913121655E-04
(PID.TID 0000.0001) %MON ke_vol                       =   7.2000000000000E+15
(PID.TID 0000.0001) %MON vort_r_min                   =  -1.5175737580750E-06
(PID.TID 0000.0001) %MON vort_r_max                   =   2.4308632974977E-06
(PID.TID 0000.0001) %MON vort_a_mean                  =   1.0600000000000E-04
(PID.TID 0000.0001) %MON vort_a_sd                    =   3.5373072931670E-06
(PID.TID 0000.0001) %MON vort_p_mean                  =   1.1130000000000E-04
(PID.TID 0000.0001) %MON vort_p_sd                    =   4.1152392796932E-05
(PID.TID 0000.0001) %MON surfExpan_theta_mean         =   5.5683694692258E-20
(PID.TID 0000.0001) %MON surfExpan_salt_mean          =   8.3526824962771E-20
(PID.TID 0000.0001) // =======================================================
(PID.TID 0000.0001) // End MONITOR dynamic field statistics
(PID.TID 0000.0001) // =======================================================
 cg2d: Sum(rhs),rhsMax =  -6.04564659077413E-04  1.46554019530479E-01
 cg2d: Sum(rhs),rhsMax =  -6.04917482920190E-04  1.46554374404465E-01
 cg2d: Sum(rhs),rhsMax =  -6.05270213280462E-04  1.46554717467808E-01
 cg2d: Sum(rhs),rhsMax =  -6.05622847290477E-04  1.46555048723223E-01
 cg2d: Sum(rhs),rhsMax =  -6.05975382179746E-04  1.46555368173454E-01
 cg2d: Sum(rhs),rhsMax =  -6.06327815234699E-04  1.46555675821271E-01
 cg2d: Sum(rhs),rhsMax =  -6.06680143939710E-04  1.46555971669470E-01
 cg2d: Sum(rhs),rhsMax =  -6.07032365472157E-04  1.46556255720870E-01
 cg2d: Sum(rhs),rhsMax =  -6.07384477299982E-04  1.46556527978319E-01
 cg2d: Sum(rhs),rhsMax =  -6.07736476877016E-04  1.46556788444691E-01
 cg2d: Sum(rhs),rhsMax =  -6.08088361691687E-04  1.46557037122882E-01
 cg2d: Sum(rhs),rhsMax =  -6.08440129241404E-04  1.46557274015819E-01
 cg2d: Sum(rhs),rhsMax =  -6.08791777058229E-04  1.46557499126451E-01
 cg2d: Sum(rhs),rhsMax =  -6.09143302726998E-04  1.46557712457755E-01
 cg2d: Sum(rhs),rhsMax =  -6.09494703909854E-04  1.46557914012734E-01
 cg2d: Sum(rhs),rhsMax =  -6.09845978209121E-04  1.46558103794413E-01
 cg2d: Sum(rhs),rhsMax =  -6.10197123184501E-04  1.46558281805848E-01
 cg2d: Sum(rhs),rhsMax =  -6.10548136700030E-04  1.46558448050118E-01
 cg2d: Sum(rhs),rhsMax =  -6.10899016414364E-04  1.46558602530328E-01
 cg2d: Sum(rhs),rhsMax =  -6.11249760038557E-04  1.46558745249608E-01
 cg2d: Sum(rhs),rhsMax =  -6.11600365480370E-04  1.46558876211115E-01
 cg2d: Sum(rhs),rhsMax =  -6.11950830416483E-04  1.46558995418033E-01
 cg2d: Sum(rhs),rhsMax =  -6.12301152771414E-04  1.46559102873568E-01
 cg2d: Sum(rhs),rhsMax =  -6.12651330352786E-04  1.46559198580955E-01
 cg2d: Sum(rhs),rhsMax =  -6.13001361131281E-04  1.46559282543452E-01
 cg2d: Sum(rhs),rhsMax =  -6.13351242984098E-04  1.46559354764346E-01
 cg2d: Sum(rhs),rhsMax =  -6.13700973973674E-04  1.46559415246945E-01
 cg2d: Sum(rhs),rhsMax =  -6.14050551984800E-04  1.46559463994588E-01
 cg2d: Sum(rhs),rhsMax =  -6.14399975101282E-04  1.46559501010636E-01
 cg2d: Sum(rhs),rhsMax =  -6.14749241355265E-04  1.46559526298475E-01
 cg2d: Sum(rhs),rhsMax =  -6.15098348716111E-04  1.46559539861520E-01
 cg2d: Sum(rhs),rhsMax =  -6.15447295369924E-04  1.46559541703209E-01
 cg2d: Sum(rhs),rhsMax =  -6.15796079397885E-04  1.46559531827006E-01
 cg2d: Sum(rhs),rhsMax =  -6.16144698837378E-04  1.46559510236401E-01
 cg2d: Sum(rhs),rhsMax =  -6.16493151993752E-04  1.46559476934909E-01
 cg2d: Sum(rhs),rhsMax =  -6.16841436953499E-04  1.46559431926071E-01
 cg2d: Sum(rhs),rhsMax =  -6.17189551935077E-04  1.46559375213454E-01
 cg2d: Sum(rhs),rhsMax =  -6.17537495247218E-04  1.46559306800648E-01
 cg2d: Sum(rhs),rhsMax =  -6.17885265045077E-04  1.46559226691271E-01
 cg2d: Sum(rhs),rhsMax =  -6.18232859697675E-04  1.46559134888968E-01
 cg2d: Sum(rhs),rhsMax =  -6.18580277374220E-04  1.46559031397404E-01
 cg2d: Sum(rhs),rhsMax =  -6.18927516485725E-04  1.46558916220272E-01
 cg2d: Sum(rhs),rhsMax =  -6.19274575435843E-04  1.46558789361294E-01
 cg2d: Sum(rhs),rhsMax =  -6.19621452384746E-04  1.46558650824212E-01
 cg2d: Sum(rhs),rhsMax =  -6.19968145858950E-04  1.46558500612797E-01
 cg2d: Sum(rhs),rhsMax =  -6.20314654262786E-04  1.46558338730843E-01
 cg2d: Sum(rhs),rhsMax =  -6.20660975978126E-04  1.46558165182171E-01
 cg2d: Sum(rhs),rhsMax =  -6.21007109465093E-04  1.46557979970626E-01
 cg2d: Sum(rhs),rhsMax =  -6.21353053237228E-04  1.46557783100081E-01
 cg2d: Sum(rhs),rhsMax =  -6.21698805704558E-04  1.46557574574429E-01
 cg2d: Sum(rhs),rhsMax =  -6.22044365337568E-04  1.46557354397595E-01
 cg2d: Sum(rhs),rhsMax =  -6.22389730734259E-04  1.46557122573523E-01
 cg2d: Sum(rhs),rhsMax =  -6.22734900378018E-04  1.46556879106187E-01
 cg2d: Sum(rhs),rhsMax =  -6.23079872835643E-04  1.46556623999583E-01
 cg2d: Sum(rhs),rhsMax =  -6.23424646787238E-04  1.46556357257734E-01
 cg2d: Sum(rhs),rhsMax =  -6.23769220674416E-04  1.46556078884689E-01
 cg2d: Sum(rhs),rhsMax =  -6.24113593273616E-04  1.46555788884519E-01
 cg2d: Sum(rhs),rhsMax =  -6.24457763038175E-04  1.46555487261323E-01
 cg2d: Sum(rhs),rhsMax =  -6.24801728662850E-04  1.46555174019224E-01
 cg2d: Sum(rhs),rhsMax =  -6.25145488822206E-04  1.46554849162370E-01
 cg2d: Sum(rhs),rhsMax =  -6.25489042334627E-04  1.46554512694936E-01
 cg2d: Sum(rhs),rhsMax =  -6.25832387781209E-04  1.46554164621119E-01
 cg2d: Sum(rhs),rhsMax =  -6.26175523891996E-04  1.46553804945142E-01
 cg2d: Sum(rhs),rhsMax =  -6.26518449341151E-04  1.46553433671256E-01
 cg2d: Sum(rhs),rhsMax =  -6.26861162920643E-04  1.46553050803733E-01
 cg2d: Sum(rhs),rhsMax =  -6.27203663322849E-04  1.46552656346873E-01
 cg2d: Sum(rhs),rhsMax =  -6.27545949434677E-04  1.46552250304999E-01
 cg2d: Sum(rhs),rhsMax =  -6.27888019964924E-04  1.46551832682460E-01
 cg2d: Sum(rhs),rhsMax =  -6.28229873776772E-04  1.46551403483630E-01
 cg2d: Sum(rhs),rhsMax =  -6.28571509682515E-04  1.46550962712907E-01
 cg2d: Sum(rhs),rhsMax =  -6.28912926470577E-04  1.46550510374716E-01
 cg2d: Sum(rhs),rhsMax =  -6.29254123096221E-04  1.46550046473505E-01
(PID.TID 0000.0001)      cg2d_init_res =   6.71765590869273E-04
(PID.TID 0000.0001)      cg2d_iters(min,last) =      -1      74
(PID.TID 0000.0001)      cg2d_last_res =   9.86282422284530E-08
(PID.TID 0000.0001) // =======================================================
(PID.TID 0000.0001) // Begin MONITOR dynamic field statistics
(PID.TID 0000.0001) // =======================================================
(PID.TID 0000.0001) %MON time_tsnumber                =                 14184
(PID.TID 0000.0001) %MON time_secondsf                =   1.7020800000000E+07
(PID.TID 0000.0001) %MON dynstat_eta_max              =   5.1863431082048E-02
(PID.TID 0000.0001) %MON dynstat_eta_min              =  -2.1178404329497E-02
(PID.TID 0000.0001) %MON dynstat_eta_mean             =   4.6133445786257E-07
(PID.TID 0000.0001) %MON dynstat_eta_sd               =   1.8758788540086E-02
(PID.TID 0000.0001) %MON dynstat_eta_del2             =   1.7800799650966E-05
(PID.TID 0000.0001) %MON dynstat_uvel_max             =   3.2016758156243E-02
(PID.TID 0000.0001) %MON dynstat_uvel_min             =  -1.7831594285862E-02
(PID.TID 0000.0001) %MON dynstat_uvel_mean            =   6.8455232120588E-08
(PID.TID 0000.0001) %MON dynstat_uvel_sd              =   6.9107909254387E-03
(PID.TID 0000.0001) %MON dynstat_uvel_del2            =   8.1867018695854E-06
(PID.TID 0000.0001) %MON dynstat_vvel_max             =   8.7959595409897E-02
(PID.TID 0000.0001) %MON dynstat_vvel_min             =  -2.8603198566335E-02
(PID.TID 0000.0001) %MON dynstat_vvel_mean            =   5.2421152908971E-09
(PID.TID 0000.0001) %MON dynstat_vvel_sd              =   1.5261652182010E-02
(PID.TID 0000.0001) %MON dynstat_vvel_del2            =   7.5427090106776E-05
(PID.TID 0000.0001) %MON dynstat_wvel_max             =   4.7902849044476E-09
(PID.TID 0000.0001) %MON dynstat_wvel_min             =  -1.1472176298557E-08
(PID.TID 0000.0001) %MON dynstat_wvel_mean            =   2.2350554394911E-21
(PID.TID 0000.0001) %MON dynstat_wvel_sd              =   4.3796761925298E-09
(PID.TID 0000.0001) %MON dynstat_wvel_del2            =   1.5119676790319E-12
(PID.TID 0000.0001) %MON dynstat_theta_max            =   2.0000000000000E+01
(PID.TID 0000.0001) %MON dynstat_theta_min            =   2.0000000000000E+01
(PID.TID 0000.0001) %MON dynstat_theta_mean           =   2.0000000000000E+01
(PID.TID 0000.0001) %MON dynstat_theta_sd             =   0.0000000000000E+00
(PID.TID 0000.0001) %MON dynstat_theta_del2           =   0.0000000000000E+00
(PID.TID 0000.0001) %MON dynstat_salt_max             =   3.0000000000000E+01
(PID.TID 0000.0001) %MON dynstat_salt_min             =   3.0000000000000E+01
(PID.TID 0000.0001) %MON dynstat_salt_mean            =   3.0000000000000E+01
(PID.TID 0000.0001) %MON dynstat_salt_sd              =   0.0000000000000E+00
(PID.TID 0000.0001) %MON dynstat_salt_del2            =   0.0000000000000E+00
(PID.TID 0000.0001) %MON trAdv_CFL_u_max              =   1.9209750070317E-03
(PID.TID 0000.0001) %MON trAdv_CFL_v_max              =   5.2775726618867E-03
(PID.TID 0000.0001) %MON trAdv_CFL_w_max              =   1.1490703277523E-09
(PID.TID 0000.0001) %MON advcfl_uvel_max              =   1.9210054893746E-03
(PID.TID 0000.0001) %MON advcfl_vvel_max              =   5.2775757245938E-03
(PID.TID 0000.0001) %MON advcfl_wvel_max              =   5.5066446233075E-09
(PID.TID 0000.0001) %MON advcfl_W_hf_max              =   0.0000000000000E+00
(PID.TID 0000.0001) %MON pe_b_mean                    =   3.4520619689812E-07
(PID.TID 0000.0001) %MON ke_max                       =   3.8655498910794E-03
(PID.TID 0000.0001) %MON ke_mean                      =   1.3799955378438E-04
(PID.TID 0000.0001) %MON ke_vol                       =   7.2000000000000E+15
(PID.TID 0000.0001) %MON vort_r_min                   =  -1.5201585399599E-06
(PID.TID 0000.0001) %MON vort_r_max                   =   2.4288821225822E-06
(PID.TID 0000.0001) %MON vort_a_mean                  =   1.0600000000000E-04
(PID.TID 0000.0001) %MON vort_a_sd                    =   3.5373484279771E-06
(PID.TID 0000.0001) %MON vort_p_mean                  =   1.1130000000000E-04
(PID.TID 0000.0001) %MON vort_p_sd                    =   4.1152301031468E-05
(PID.TID 0000.0001) %MON surfExpan_theta_mean         =   4.4704822559854E-20
(PID.TID 0000.0001) %MON surfExpan_salt_mean          =   6.7057470687359E-20
(PID.TID 0000.0001) // =======================================================
(PID.TID 0000.0001) // End MONITOR dynamic field statistics
(PID.TID 0000.0001) // =======================================================
 cg2d: Sum(rhs),rhsMax =  -6.29595098345040E-04  1.46549571013747E-01
 cg2d: Sum(rhs),rhsMax =  -6.29935851033827E-04  1.46549083999942E-01
 cg2d: Sum(rhs),rhsMax =  -6.30276380247655E-04  1.46548585436611E-01
 cg2d: Sum(rhs),rhsMax =  -6.30616684741974E-04  1.46548075328304E-01
 cg2d: Sum(rhs),rhsMax =  -6.30956763293564E-04  1.46547553679594E-01
 cg2d: Sum(rhs),rhsMax =  -6.31296615137639E-04  1.46547020495078E-01
 cg2d: Sum(rhs),rhsMax =  -6.31636239090214E-04  1.46546475779379E-01
 cg2d: Sum(rhs),rhsMax =  -6.31975634110478E-04  1.46545919537145E-01
 cg2d: Sum(rhs),rhsMax =  -6.32314799094850E-04  1.46545351773048E-01
 cg2d: Sum(rhs),rhsMax =  -6.32653733129709E-04  1.46544772491785E-01
 cg2d: Sum(rhs),rhsMax =  -6.32992435137163E-04  1.46544181698077E-01
 cg2d: Sum(rhs),rhsMax =  -6.33330904149558E-04  1.46543579396672E-01
 cg2d: Sum(rhs),rhsMax =  -6.33669139285666E-04  1.46542965592341E-01
 cg2d: Sum(rhs),rhsMax =  -6.34007139390646E-04  1.46542340289878E-01
 cg2d: Sum(rhs),rhsMax =  -6.34344903570855E-04  1.46541703494105E-01
 cg2d: Sum(rhs),rhsMax =  -6.34682430933525E-04  1.46541055209867E-01
 cg2d: Sum(rhs),rhsMax =  -6.35019720491237E-04  1.46540395442034E-01
 cg2d: Sum(rhs),rhsMax =  -6.35356771318752E-04  1.46539724195501E-01
 cg2d: Sum(rhs),rhsMax =  -6.35693582501116E-04  1.46539041475186E-01
 cg2d: Sum(rhs),rhsMax =  -6.36030153226605E-04  1.46538347286032E-01
 cg2d: Sum(rhs),rhsMax =  -6.36366482477555E-04  1.46537641633009E-01
 cg2d: Sum(rhs),rhsMax =  -6.36702569419829E-04  1.46536924521109E-01
 cg2d: Sum(rhs),rhsMax =  -6.37038413155928E-04  1.46536195955349E-01
 cg2d: Sum(rhs),rhsMax =  -6.37374012760508E-04  1.46535455940771E-01
 cg2d: Sum(rhs),rhsMax =  -6.37709367541760E-04  1.46534704482441E-01
 cg2d: Sum(rhs),rhsMax =  -6.38044476605090E-04  1.46533941585450E-01
 cg2d: Sum(rhs),rhsMax =  -6.38379339081926E-04  1.46533167254913E-01
 cg2d: Sum(rhs),rhsMax =  -6.38713954107945E-04  1.46532381495970E-01
 cg2d: Sum(rhs),rhsMax =  -6.39048320880639E-04  1.46531584313784E-01
 cg2d: Sum(rhs),rhsMax =  -6.39382438648650E-04  1.46530775713545E-01
 cg2d: Sum(rhs),rhsMax =  -6.39716306646788E-04  1.46529955700465E-01
 cg2d: Sum(rhs),rhsMax =  -6.40049923892523E-04  1.46529124279780E-01
 cg2d: Sum(rhs),rhsMax =  -6.40383289869840E-04  1.46528281456753E-01
 cg2d: Sum(rhs),rhsMax =  -6.40716403588438E-04  1.46527427236670E-01
 cg2d: Sum(rhs),rhsMax =  -6.41049264341581E-04  1.46526561624840E-01
 cg2d: Sum(rhs),rhsMax =  -6.41381871422490E-04  1.46525684626599E-01
 cg2d: Sum(rhs),rhsMax =  -6.41714224016697E-04  1.46524796247303E-01
 cg2d: Sum(rhs),rhsMax =  -6.42046321490778E-04  1.46523896492338E-01
 cg2d: Sum(rhs),rhsMax =  -6.42378163007296E-04  1.46522985367108E-01
 cg2d: Sum(rhs),rhsMax =  -6.42709747863754E-04  1.46522062877047E-01
 cg2d: Sum(rhs),rhsMax =  -6.43041075294817E-04  1.46521129027608E-01
 cg2d: Sum(rhs),rhsMax =  -6.43372144707137E-04  1.46520183824274E-01
 cg2d: Sum(rhs),rhsMax =  -6.43702955193800E-04  1.46519227272546E-01
 cg2d: Sum(rhs),rhsMax =  -6.44033506307157E-04  1.46518259377953E-01
 cg2d: Sum(rhs),rhsMax =  -6.44363797144490E-04  1.46517280146047E-01
 cg2d: Sum(rhs),rhsMax =  -6.44693827207140E-04  1.46516289582404E-01
 cg2d: Sum(rhs),rhsMax =  -6.45023595719166E-04  1.46515287692625E-01
 cg2d: Sum(rhs),rhsMax =  -6.45353101907781E-04  1.46514274482333E-01
 cg2d: Sum(rhs),rhsMax =  -6.45682345345512E-04  1.46513249957177E-01
 cg2d: Sum(rhs),rhsMax =  -6.46011325185786E-04  1.46512214122829E-01
 cg2d: Sum(rhs),rhsMax =  -6.46340040859547E-04  1.46511166984986E-01
 cg2d: Sum(rhs),rhsMax =  -6.46668491692897E-04  1.46510108549368E-01
 cg2d: Sum(rhs),rhsMax =  -6.46996677037959E-04  1.46509038821718E-01
 cg2d: Sum(rhs),rhsMax =  -6.47324596310779E-04  1.46507957807806E-01
 cg2d: Sum(rhs),rhsMax =  -6.47652248789306E-04  1.46506865513423E-01
 cg2d: Sum(rhs),rhsMax =  -6.47979634038353E-04  1.46505761944385E-01
 cg2d: Sum(rhs),rhsMax =  -6.48306751191321E-04  1.46504647106532E-01
 cg2d: Sum(rhs),rhsMax =  -6.48633599736203E-04  1.46503521005729E-01
 cg2d: Sum(rhs),rhsMax =  -6.48960179178698E-04  1.46502383647861E-01
 cg2d: Sum(rhs),rhsMax =  -6.49286488783512E-04  1.46501235038841E-01
 cg2d: Sum(rhs),rhsMax =  -6.49612528003839E-04  1.46500075184603E-01
 cg2d: Sum(rhs),rhsMax =  -6.49938296236357E-04  1.46498904091106E-01
 cg2d: Sum(rhs),rhsMax =  -6.50263792877517E-04  1.46497721764334E-01
 cg2d: Sum(rhs),rhsMax =  -6.50589017368836E-04  1.46496528210292E-01
 cg2d: Sum(rhs),rhsMax =  -6.50913969106797E-04  1.46495323435011E-01
 cg2d: Sum(rhs),rhsMax =  -6.51238647581418E-04  1.46494107444544E-01
 cg2d: Sum(rhs),rhsMax =  -6.51563052140588E-04  1.46492880244968E-01
 cg2d: Sum(rhs),rhsMax =  -6.51887182302319E-04  1.46491641842385E-01
 cg2d: Sum(rhs),rhsMax =  -6.52211037349422E-04  1.46490392242920E-01
 cg2d: Sum(rhs),rhsMax =  -6.52534617007736E-04  1.46489131452719E-01
 cg2d: Sum(rhs),rhsMax =  -6.52857920449248E-04  1.46487859477957E-01
 cg2d: Sum(rhs),rhsMax =  -6.53180947251037E-04  1.46486576324826E-01
(PID.TID 0000.0001)      cg2d_init_res =   6.66537561765568E-04
(PID.TID 0000.0001)      cg2d_iters(min,last) =      -1      74
(PID.TID 0000.0001)      cg2d_last_res =   9.83220052353963E-08
(PID.TID 0000.0001) // =======================================================
(PID.TID 0000.0001) // Begin MONITOR dynamic field statistics
(PID.TID 0000.0001) // =======================================================
(PID.TID 0000.0001) %MON time_tsnumber                =                 14256
(PID.TID 0000.0001) %MON time_secondsf                =   1.7107200000000E+07
(PID.TID 0000.0001) %MON dynstat_eta_max              =   5.2063495772590E-02
(PID.TID 0000.0001) %MON dynstat_eta_min              =  -2.0896546504522E-02
(PID.TID 0000.0001) %MON dynstat_eta_mean             =   4.7864336659391E-07
(PID.TID 0000.0001) %MON dynstat_eta_sd               =   1.8583950465712E-02
(PID.TID 0000.0001) %MON dynstat_eta_del2             =   1.7834229978236E-05
(PID.TID 0000.0001) %MON dynstat_uvel_max             =   3.2048060045509E-02
(PID.TID 0000.0001) %MON dynstat_uvel_min             =  -1.7804188499221E-02
(PID.TID 0000.0001) %MON dynstat_uvel_mean            =   8.7530628367835E-08
(PID.TID 0000.0001) %MON dynstat_uvel_sd              =   6.8371784796084E-03
(PID.TID 0000.0001) %MON dynstat_uvel_del2            =   8.1470504632546E-06
(PID.TID 0000.0001) %MON dynstat_vvel_max             =   8.7945008180205E-02
(PID.TID 0000.0001) %MON dynstat_vvel_min             =  -2.8751398657887E-02
(PID.TID 0000.0001) %MON dynstat_vvel_mean            =   5.0658587477645E-09
(PID.TID 0000.0001) %MON dynstat_vvel_sd              =   1.5270365243086E-02
(PID.TID 0000.0001) %MON dynstat_vvel_del2            =   7.5528530878546E-05
(PID.TID 0000.0001) %MON dynstat_wvel_max             =   4.9983070619055E-09
(PID.TID 0000.0001) %MON dynstat_wvel_min             =  -1.1341591764358E-08
(PID.TID 0000.0001) %MON dynstat_wvel_mean            =   2.0025133077676E-21
(PID.TID 0000.0001) %MON dynstat_wvel_sd              =   4.3710154469792E-09
(PID.TID 0000.0001) %MON dynstat_wvel_del2            =   1.4921281626468E-12
(PID.TID 0000.0001) %MON dynstat_theta_max            =   2.0000000000000E+01
(PID.TID 0000.0001) %MON dynstat_theta_min            =   2.0000000000000E+01
(PID.TID 0000.0001) %MON dynstat_theta_mean           =   2.0000000000000E+01
(PID.TID 0000.0001) %MON dynstat_theta_sd             =   0.0000000000000E+00
(PID.TID 0000.0001) %MON dynstat_theta_del2           =   0.0000000000000E+00
(PID.TID 0000.0001) %MON dynstat_salt_max             =   3.0000000000000E+01
(PID.TID 0000.0001) %MON dynstat_salt_min             =   3.0000000000000E+01
(PID.TID 0000.0001) %MON dynstat_salt_mean            =   3.0000000000000E+01
(PID.TID 0000.0001) %MON dynstat_salt_sd              =   0.0000000000000E+00
(PID.TID 0000.0001) %MON dynstat_salt_del2            =   0.0000000000000E+00
(PID.TID 0000.0001) %MON trAdv_CFL_u_max              =   1.9228617988774E-03
(PID.TID 0000.0001) %MON trAdv_CFL_v_max              =   5.2767273440451E-03
(PID.TID 0000.0001) %MON trAdv_CFL_w_max              =   1.1987733294955E-09
(PID.TID 0000.0001) %MON advcfl_uvel_max              =   1.9228836027305E-03
(PID.TID 0000.0001) %MON advcfl_vvel_max              =   5.2767004908123E-03
(PID.TID 0000.0001) %MON advcfl_wvel_max              =   5.4439640468918E-09
(PID.TID 0000.0001) %MON advcfl_W_hf_max              =   0.0000000000000E+00
(PID.TID 0000.0001) %MON pe_b_mean                    =   3.3880131405345E-07
(PID.TID 0000.0001) %MON ke_max                       =   3.8650722199413E-03
(PID.TID 0000.0001) %MON ke_mean                      =   1.3763277324491E-04
(PID.TID 0000.0001) %MON ke_vol                       =   7.2000000000000E+15
(PID.TID 0000.0001) %MON vort_r_min                   =  -1.5225747158212E-06
(PID.TID 0000.0001) %MON vort_r_max                   =   2.4258775847923E-06
(PID.TID 0000.0001) %MON vort_a_mean                  =   1.0600000000000E-04
(PID.TID 0000.0001) %MON vort_a_sd                    =   3.5373801144174E-06
(PID.TID 0000.0001) %MON vort_p_mean                  =   1.1130000000000E-04
(PID.TID 0000.0001) %MON vort_p_sd                    =   4.1152207960985E-05
(PID.TID 0000.0001) %MON surfExpan_theta_mean         =   4.0053096641815E-20
(PID.TID 0000.0001) %MON surfExpan_salt_mean          =   6.0078243614549E-20
(PID.TID 0000.0001) // =======================================================
(PID.TID 0000.0001) // End MONITOR dynamic field statistics
(PID.TID 0000.0001) // =======================================================
 cg2d: Sum(rhs),rhsMax =  -6.53503696825815E-04  1.46485281999548E-01
 cg2d: Sum(rhs),rhsMax =  -6.53826168634800E-04  1.46483976508364E-01
 cg2d: Sum(rhs),rhsMax =  -6.54148362190803E-04  1.46482659857540E-01
 cg2d: Sum(rhs),rhsMax =  -6.54470276994315E-04  1.46481332053366E-01
 cg2d: Sum(rhs),rhsMax =  -6.54791912414533E-04  1.46479993102155E-01
 cg2d: Sum(rhs),rhsMax =  -6.55113267919211E-04  1.46478643010242E-01
 cg2d: Sum(rhs),rhsMax =  -6.55434343000862E-04  1.46477281783988E-01
 cg2d: Sum(rhs),rhsMax =  -6.55755137191476E-04  1.46475909429775E-01
 cg2d: Sum(rhs),rhsMax =  -6.56075649928103E-04  1.46474525954011E-01
 cg2d: Sum(rhs),rhsMax =  -6.56395880792735E-04  1.46473131363124E-01
 cg2d: Sum(rhs),rhsMax =  -6.56715829166678E-04  1.46471725663570E-01
 cg2d: Sum(rhs),rhsMax =  -6.57035494536876E-04  1.46470308861822E-01
 cg2d: Sum(rhs),rhsMax =  -6.57354876504345E-04  1.46468880964383E-01
 cg2d: Sum(rhs),rhsMax =  -6.57673974494346E-04  1.46467441977774E-01
 cg2d: Sum(rhs),rhsMax =  -6.57992788032235E-04  1.46465991908541E-01
 cg2d: Sum(rhs),rhsMax =  -6.58311316555966E-04  1.46464530763255E-01
 cg2d: Sum(rhs),rhsMax =  -6.58629559679537E-04  1.46463058548508E-01
 cg2d: Sum(rhs),rhsMax =  -6.58947516835214E-04  1.46461575270916E-01
 cg2d: Sum(rhs),rhsMax =  -6.59265187532856E-04  1.46460080937117E-01
 cg2d: Sum(rhs),rhsMax =  -6.59582571233523E-04  1.46458575553774E-01
 cg2d: Sum(rhs),rhsMax =  -6.59899667586313E-04  1.46457059127573E-01
 cg2d: Sum(rhs),rhsMax =  -6.60216476020808E-04  1.46455531665221E-01
 cg2d: Sum(rhs),rhsMax =  -6.60532996046044E-04  1.46453993173450E-01
 cg2d: Sum(rhs),rhsMax =  -6.60849227292297E-04  1.46452443659014E-01
 cg2d: Sum(rhs),rhsMax =  -6.61165169147724E-04  1.46450883128692E-01
 cg2d: Sum(rhs),rhsMax =  -6.61480821186505E-04  1.46449311589282E-01
 cg2d: Sum(rhs),rhsMax =  -6.61796182988184E-04  1.46447729047609E-01
 cg2d: Sum(rhs),rhsMax =  -6.62111253975280E-04  1.46446135510520E-01
 cg2d: Sum(rhs),rhsMax =  -6.62426033802323E-04  1.46444530984882E-01
 cg2d: Sum(rhs),rhsMax =  -6.62740521880621E-04  1.46442915477590E-01
 cg2d: Sum(rhs),rhsMax =  -6.63054717807785E-04  1.46441288995556E-01
 cg2d: Sum(rhs),rhsMax =  -6.63368621152893E-04  1.46439651545721E-01
 cg2d: Sum(rhs),rhsMax =  -6.63682231424372E-04  1.46438003135045E-01
 cg2d: Sum(rhs),rhsMax =  -6.63995548136121E-04  1.46436343770510E-01
 cg2d: Sum(rhs),rhsMax =  -6.64308570826290E-04  1.46434673459124E-01
 cg2d: Sum(rhs),rhsMax =  -6.64621299136474E-04  1.46432992207915E-01
 cg2d: Sum(rhs),rhsMax =  -6.64933732471157E-04  1.46431300023937E-01
 cg2d: Sum(rhs),rhsMax =  -6.65245870449846E-04  1.46429596914262E-01
 cg2d: Sum(rhs),rhsMax =  -6.65557712649666E-04  1.46427882885989E-01
 cg2d: Sum(rhs),rhsMax =  -6.65869258522585E-04  1.46426157946238E-01
 cg2d: Sum(rhs),rhsMax =  -6.66180507684425E-04  1.46424422102151E-01
 cg2d: Sum(rhs),rhsMax =  -6.66491459724230E-04  1.46422675360895E-01
 cg2d: Sum(rhs),rhsMax =  -6.66802114053451E-04  1.46420917729656E-01
 cg2d: Sum(rhs),rhsMax =  -6.67112470259279E-04  1.46419149215645E-01
 cg2d: Sum(rhs),rhsMax =  -6.67422528111391E-04  1.46417369826095E-01
 cg2d: Sum(rhs),rhsMax =  -6.67732286857514E-04  1.46415579568263E-01
 cg2d: Sum(rhs),rhsMax =  -6.68041746197920E-04  1.46413778449425E-01
 cg2d: Sum(rhs),rhsMax =  -6.68350905816879E-04  1.46411966476883E-01
 cg2d: Sum(rhs),rhsMax =  -6.68659765043571E-04  1.46410143657960E-01
 cg2d: Sum(rhs),rhsMax =  -6.68968323530961E-04  1.46408310000002E-01
 cg2d: Sum(rhs),rhsMax =  -6.69276580889787E-04  1.46406465510376E-01
 cg2d: Sum(rhs),rhsMax =  -6.69584536494393E-04  1.46404610196473E-01
 cg2d: Sum(rhs),rhsMax =  -6.69892190170412E-04  1.46402744065705E-01
 cg2d: Sum(rhs),rhsMax =  -6.70199541274223E-04  1.46400867125508E-01
 cg2d: Sum(rhs),rhsMax =  -6.70506589432255E-04  1.46398979383339E-01
 cg2d: Sum(rhs),rhsMax =  -6.70813334159324E-04  1.46397080846679E-01
 cg2d: Sum(rhs),rhsMax =  -6.71119775123388E-04  1.46395171523027E-01
 cg2d: Sum(rhs),rhsMax =  -6.71425911736336E-04  1.46393251419910E-01
 cg2d: Sum(rhs),rhsMax =  -6.71731743678751E-04  1.46391320544874E-01
 cg2d: Sum(rhs),rhsMax =  -6.72037270511481E-04  1.46389378905487E-01
 cg2d: Sum(rhs),rhsMax =  -6.72342491761278E-04  1.46387426509341E-01
 cg2d: Sum(rhs),rhsMax =  -6.72647407023024E-04  1.46385463364048E-01
 cg2d: Sum(rhs),rhsMax =  -6.72952015819701E-04  1.46383489477243E-01
 cg2d: Sum(rhs),rhsMax =  -6.73256317739953E-04  1.46381504856584E-01
 cg2d: Sum(rhs),rhsMax =  -6.73560312327339E-04  1.46379509509751E-01
 cg2d: Sum(rhs),rhsMax =  -6.73863999154375E-04  1.46377503444445E-01
 cg2d: Sum(rhs),rhsMax =  -6.74167377775403E-04  1.46375486668389E-01
 cg2d: Sum(rhs),rhsMax =  -6.74470447834728E-04  1.46373459189328E-01
 cg2d: Sum(rhs),rhsMax =  -6.74773208767114E-04  1.46371421015031E-01
 cg2d: Sum(rhs),rhsMax =  -6.75075660252217E-04  1.46369372153286E-01
 cg2d: Sum(rhs),rhsMax =  -6.75377801823402E-04  1.46367312611906E-01
 cg2d: Sum(rhs),rhsMax =  -6.75679632968250E-04  1.46365242398724E-01
(PID.TID 0000.0001)      cg2d_init_res =   6.62408813320210E-04
(PID.TID 0000.0001)      cg2d_iters(min,last) =      -1      74
(PID.TID 0000.0001)      cg2d_last_res =   9.62405648815615E-08
(PID.TID 0000.0001) // =======================================================
(PID.TID 0000.0001) // Begin MONITOR dynamic field statistics
(PID.TID 0000.0001) // =======================================================
(PID.TID 0000.0001) %MON time_tsnumber                =                 14328
(PID.TID 0000.0001) %MON time_secondsf                =   1.7193600000000E+07
(PID.TID 0000.0001) %MON dynstat_eta_max              =   5.2211606804632E-02
(PID.TID 0000.0001) %MON dynstat_eta_min              =  -2.0628502977146E-02
(PID.TID 0000.0001) %MON dynstat_eta_mean             =   4.9469369368625E-07
(PID.TID 0000.0001) %MON dynstat_eta_sd               =   1.8393337950909E-02
(PID.TID 0000.0001) %MON dynstat_eta_del2             =   1.7865906678753E-05
(PID.TID 0000.0001) %MON dynstat_uvel_max             =   3.2068954674463E-02
(PID.TID 0000.0001) %MON dynstat_uvel_min             =  -1.7758617636892E-02
(PID.TID 0000.0001) %MON dynstat_uvel_mean            =   1.0508898488814E-07
(PID.TID 0000.0001) %MON dynstat_uvel_sd              =   6.7631623431024E-03
(PID.TID 0000.0001) %MON dynstat_uvel_del2            =   8.1081596886445E-06
(PID.TID 0000.0001) %MON dynstat_vvel_max             =   8.7894977976493E-02
(PID.TID 0000.0001) %MON dynstat_vvel_min             =  -2.8912781441436E-02
(PID.TID 0000.0001) %MON dynstat_vvel_mean            =   4.8027678171227E-09
(PID.TID 0000.0001) %MON dynstat_vvel_sd              =   1.5272934596904E-02
(PID.TID 0000.0001) %MON dynstat_vvel_del2            =   7.5611296835509E-05
(PID.TID 0000.0001) %MON dynstat_wvel_max             =   5.2311469531560E-09
(PID.TID 0000.0001) %MON dynstat_wvel_min             =  -1.1174218184024E-08
(PID.TID 0000.0001) %MON dynstat_wvel_mean            =   6.2698303635342E-22
(PID.TID 0000.0001) %MON dynstat_wvel_sd              =   4.3618763303096E-09
(PID.TID 0000.0001) %MON dynstat_wvel_del2            =   1.4725193091715E-12
(PID.TID 0000.0001) %MON dynstat_theta_max            =   2.0000000000000E+01
(PID.TID 0000.0001) %MON dynstat_theta_min            =   2.0000000000000E+01
(PID.TID 0000.0001) %MON dynstat_theta_mean           =   2.0000000000000E+01
(PID.TID 0000.0001) %MON dynstat_theta_sd             =   0.0000000000000E+00
(PID.TID 0000.0001) %MON dynstat_theta_del2           =   0.0000000000000E+00
(PID.TID 0000.0001) %MON dynstat_salt_max             =   3.0000000000000E+01
(PID.TID 0000.0001) %MON dynstat_salt_min             =   3.0000000000000E+01
(PID.TID 0000.0001) %MON dynstat_salt_mean            =   3.0000000000000E+01
(PID.TID 0000.0001) %MON dynstat_salt_sd              =   0.0000000000000E+00
(PID.TID 0000.0001) %MON dynstat_salt_del2            =   0.0000000000000E+00
(PID.TID 0000.0001) %MON trAdv_CFL_u_max              =   1.9241241260289E-03
(PID.TID 0000.0001) %MON trAdv_CFL_v_max              =   5.2737546428327E-03
(PID.TID 0000.0001) %MON trAdv_CFL_w_max              =   1.2546215894166E-09
(PID.TID 0000.0001) %MON advcfl_uvel_max              =   1.9241372804678E-03
(PID.TID 0000.0001) %MON advcfl_vvel_max              =   5.2736986785896E-03
(PID.TID 0000.0001) %MON advcfl_wvel_max              =   5.3636247283313E-09
(PID.TID 0000.0001) %MON advcfl_W_hf_max              =   0.0000000000000E+00
(PID.TID 0000.0001) %MON pe_b_mean                    =   3.3188689847785E-07
(PID.TID 0000.0001) %MON ke_max                       =   3.8614688808962E-03
(PID.TID 0000.0001) %MON ke_mean                      =   1.3717642391167E-04
(PID.TID 0000.0001) %MON ke_vol                       =   7.2000000000000E+15
(PID.TID 0000.0001) %MON vort_r_min                   =  -1.5247988314656E-06
(PID.TID 0000.0001) %MON vort_r_max                   =   2.4219023663218E-06
(PID.TID 0000.0001) %MON vort_a_mean                  =   1.0600000000000E-04
(PID.TID 0000.0001) %MON vort_a_sd                    =   3.5374023000265E-06
(PID.TID 0000.0001) %MON vort_p_mean                  =   1.1130000000000E-04
(PID.TID 0000.0001) %MON vort_p_sd                    =   4.1152114670157E-05
(PID.TID 0000.0001) %MON surfExpan_theta_mean         =   1.2536421283787E-20
(PID.TID 0000.0001) %MON surfExpan_salt_mean          =   1.8803645060770E-20
(PID.TID 0000.0001) // =======================================================
(PID.TID 0000.0001) // End MONITOR dynamic field statistics
(PID.TID 0000.0001) // =======================================================
 cg2d: Sum(rhs),rhsMax =  -6.75981153340315E-04  1.46363161521594E-01
 cg2d: Sum(rhs),rhsMax =  -6.76282362571466E-04  1.46361069988394E-01
 cg2d: Sum(rhs),rhsMax =  -6.76583260005480E-04  1.46358967807023E-01
 cg2d: Sum(rhs),rhsMax =  -6.76883845426357E-04  1.46356854985401E-01
 cg2d: Sum(rhs),rhsMax =  -6.77184118308561E-04  1.46354731531472E-01
 cg2d: Sum(rhs),rhsMax =  -6.77484078261777E-04  1.46352597453199E-01
 cg2d: Sum(rhs),rhsMax =  -6.77783724813595E-04  1.46350452758568E-01
 cg2d: Sum(rhs),rhsMax =  -6.78083057448688E-04  1.46348297455588E-01
 cg2d: Sum(rhs),rhsMax =  -6.78382075864221E-04  1.46346131552288E-01
 cg2d: Sum(rhs),rhsMax =  -6.78680779669791E-04  1.46343955056718E-01
 cg2d: Sum(rhs),rhsMax =  -6.78979168211147E-04  1.46341767976952E-01
 cg2d: Sum(rhs),rhsMax =  -6.79277241176159E-04  1.46339570321085E-01
 cg2d: Sum(rhs),rhsMax =  -6.79574998146057E-04  1.46337362097231E-01
 cg2d: Sum(rhs),rhsMax =  -6.79872438765719E-04  1.46335143313529E-01
 cg2d: Sum(rhs),rhsMax =  -6.80169562440742E-04  1.46332913978137E-01
 cg2d: Sum(rhs),rhsMax =  -6.80466368865096E-04  1.46330674099238E-01
 cg2d: Sum(rhs),rhsMax =  -6.80762857548272E-04  1.46328423685031E-01
 cg2d: Sum(rhs),rhsMax =  -6.81059028026627E-04  1.46326162743742E-01
 cg2d: Sum(rhs),rhsMax =  -6.81354879896307E-04  1.46323891283614E-01
 cg2d: Sum(rhs),rhsMax =  -6.81650412777610E-04  1.46321609312916E-01
 cg2d: Sum(rhs),rhsMax =  -6.81945626088328E-04  1.46319316839934E-01
 cg2d: Sum(rhs),rhsMax =  -6.82240519490653E-04  1.46317013872976E-01
 cg2d: Sum(rhs),rhsMax =  -6.82535092499980E-04  1.46314700420376E-01
 cg2d: Sum(rhs),rhsMax =  -6.82829344739098E-04  1.46312376490483E-01
 cg2d: Sum(rhs),rhsMax =  -6.83123275796395E-04  1.46310042091671E-01
 cg2d: Sum(rhs),rhsMax =  -6.83416885141765E-04  1.46307697232334E-01
 cg2d: Sum(rhs),rhsMax =  -6.83710172332806E-04  1.46305341920889E-01
 cg2d: Sum(rhs),rhsMax =  -6.84003137012306E-04  1.46302976165771E-01
 cg2d: Sum(rhs),rhsMax =  -6.84295778787600E-04  1.46300599975440E-01
 cg2d: Sum(rhs),rhsMax =  -6.84588096975764E-04  1.46298213358373E-01
 cg2d: Sum(rhs),rhsMax =  -6.84880091374617E-04  1.46295816323072E-01
 cg2d: Sum(rhs),rhsMax =  -6.85171761435750E-04  1.46293408878057E-01
 cg2d: Sum(rhs),rhsMax =  -6.85463106747362E-04  1.46290991031872E-01
 cg2d: Sum(rhs),rhsMax =  -6.85754126850698E-04  1.46288562793080E-01
 cg2d: Sum(rhs),rhsMax =  -6.86044821404678E-04  1.46286124170265E-01
 cg2d: Sum(rhs),rhsMax =  -6.86335189838411E-04  1.46283675172033E-01
 cg2d: Sum(rhs),rhsMax =  -6.86625231792087E-04  1.46281215807010E-01
 cg2d: Sum(rhs),rhsMax =  -6.86914946758849E-04  1.46278746083845E-01
 cg2d: Sum(rhs),rhsMax =  -6.87204334286065E-04  1.46276266011204E-01
 cg2d: Sum(rhs),rhsMax =  -6.87493394076245E-04  1.46273775597779E-01
 cg2d: Sum(rhs),rhsMax =  -6.87782125543110E-04  1.46271274852278E-01
 cg2d: Sum(rhs),rhsMax =  -6.88070528349023E-04  1.46268763783433E-01
 cg2d: Sum(rhs),rhsMax =  -6.88358601840930E-04  1.46266242399996E-01
 cg2d: Sum(rhs),rhsMax =  -6.88646345843413E-04  1.46263710710739E-01
 cg2d: Sum(rhs),rhsMax =  -6.88933759682188E-04  1.46261168724455E-01
 cg2d: Sum(rhs),rhsMax =  -6.89220843003998E-04  1.46258616449960E-01
 cg2d: Sum(rhs),rhsMax =  -6.89507595408536E-04  1.46256053896087E-01
 cg2d: Sum(rhs),rhsMax =  -6.89794016428115E-04  1.46253481071693E-01
 cg2d: Sum(rhs),rhsMax =  -6.90080105578231E-04  1.46250897985653E-01
 cg2d: Sum(rhs),rhsMax =  -6.90365862393675E-04  1.46248304646863E-01
 cg2d: Sum(rhs),rhsMax =  -6.90651286483510E-04  1.46245701064243E-01
 cg2d: Sum(rhs),rhsMax =  -6.90936377428833E-04  1.46243087246728E-01
 cg2d: Sum(rhs),rhsMax =  -6.91221134660531E-04  1.46240463203279E-01
 cg2d: Sum(rhs),rhsMax =  -6.91505557843469E-04  1.46237828942874E-01
 cg2d: Sum(rhs),rhsMax =  -6.91789646503811E-04  1.46235184474512E-01
 cg2d: Sum(rhs),rhsMax =  -6.92073400102043E-04  1.46232529807214E-01
 cg2d: Sum(rhs),rhsMax =  -6.92356818292252E-04  1.46229864950019E-01
 cg2d: Sum(rhs),rhsMax =  -6.92639900604639E-04  1.46227189911989E-01
 cg2d: Sum(rhs),rhsMax =  -6.92922646548458E-04  1.46224504702206E-01
 cg2d: Sum(rhs),rhsMax =  -6.93205055635235E-04  1.46221809329770E-01
 cg2d: Sum(rhs),rhsMax =  -6.93487127520583E-04  1.46219103803803E-01
 cg2d: Sum(rhs),rhsMax =  -6.93768861743600E-04  1.46216388133448E-01
 cg2d: Sum(rhs),rhsMax =  -6.94050257725376E-04  1.46213662327867E-01
 cg2d: Sum(rhs),rhsMax =  -6.94331315088820E-04  1.46210926396243E-01
 cg2d: Sum(rhs),rhsMax =  -6.94612033406636E-04  1.46208180347779E-01
 cg2d: Sum(rhs),rhsMax =  -6.94892412213858E-04  1.46205424191698E-01
 cg2d: Sum(rhs),rhsMax =  -6.95172450941947E-04  1.46202657937243E-01
 cg2d: Sum(rhs),rhsMax =  -6.95452149310615E-04  1.46199881593678E-01
 cg2d: Sum(rhs),rhsMax =  -6.95731506760250E-04  1.46197095170286E-01
 cg2d: Sum(rhs),rhsMax =  -6.96010522890570E-04  1.46194298676371E-01
 cg2d: Sum(rhs),rhsMax =  -6.96289197266756E-04  1.46191492121257E-01
 cg2d: Sum(rhs),rhsMax =  -6.96567529333470E-04  1.46188675514287E-01
(PID.TID 0000.0001)      cg2d_init_res =   6.59293863058524E-04
(PID.TID 0000.0001)      cg2d_iters(min,last) =      -1      74
(PID.TID 0000.0001)      cg2d_last_res =   9.22886407243825E-08
(PID.TID 0000.0001) // =======================================================
(PID.TID 0000.0001) // Begin MONITOR dynamic field statistics
(PID.TID 0000.0001) // =======================================================
(PID.TID 0000.0001) %MON time_tsnumber                =                 14400
(PID.TID 0000.0001) %MON time_secondsf                =   1.7280000000000E+07
(PID.TID 0000.0001) %MON dynstat_eta_max              =   5.2299673004323E-02
(PID.TID 0000.0001) %MON dynstat_eta_min              =  -2.0377419853605E-02
(PID.TID 0000.0001) %MON dynstat_eta_mean             =   5.0934476832166E-07
(PID.TID 0000.0001) %MON dynstat_eta_sd               =   1.8189292403006E-02
(PID.TID 0000.0001) %MON dynstat_eta_del2             =   1.7895541219576E-05
(PID.TID 0000.0001) %MON dynstat_uvel_max             =   3.2079541734760E-02
(PID.TID 0000.0001) %MON dynstat_uvel_min             =  -1.7695962426261E-02
(PID.TID 0000.0001) %MON dynstat_uvel_mean            =   1.2092403414108E-07
(PID.TID 0000.0001) %MON dynstat_uvel_sd              =   6.6896025535452E-03
(PID.TID 0000.0001) %MON dynstat_uvel_del2            =   8.0702118174810E-06
(PID.TID 0000.0001) %MON dynstat_vvel_max             =   8.7810671103532E-02
(PID.TID 0000.0001) %MON dynstat_vvel_min             =  -2.9112467368172E-02
(PID.TID 0000.0001) %MON dynstat_vvel_mean            =   4.4609885056815E-09
(PID.TID 0000.0001) %MON dynstat_vvel_sd              =   1.5269551721555E-02
(PID.TID 0000.0001) %MON dynstat_vvel_del2            =   7.5675106065135E-05
(PID.TID 0000.0001) %MON dynstat_wvel_max             =   5.4922847886337E-09
(PID.TID 0000.0001) %MON dynstat_wvel_min             =  -1.0978991022857E-08
(PID.TID 0000.0001) %MON dynstat_wvel_mean            =   2.7050368266322E-21
(PID.TID 0000.0001) %MON dynstat_wvel_sd              =   4.3514626894426E-09
(PID.TID 0000.0001) %MON dynstat_wvel_del2            =   1.4535849823040E-12
(PID.TID 0000.0001) %MON dynstat_theta_max            =   2.0000000000000E+01
(PID.TID 0000.0001) %MON dynstat_theta_min            =   2.0000000000000E+01
(PID.TID 0000.0001) %MON dynstat_theta_mean           =   2.0000000000000E+01
(PID.TID 0000.0001) %MON dynstat_theta_sd             =   0.0000000000000E+00
(PID.TID 0000.0001) %MON dynstat_theta_del2           =   0.0000000000000E+00
(PID.TID 0000.0001) %MON dynstat_salt_max             =   3.0000000000000E+01
(PID.TID 0000.0001) %MON dynstat_salt_min             =   3.0000000000000E+01
(PID.TID 0000.0001) %MON dynstat_salt_mean            =   3.0000000000000E+01
(PID.TID 0000.0001) %MON dynstat_salt_sd              =   0.0000000000000E+00
(PID.TID 0000.0001) %MON dynstat_salt_del2            =   0.0000000000000E+00
(PID.TID 0000.0001) %MON trAdv_CFL_u_max              =   1.9247678640434E-03
(PID.TID 0000.0001) %MON trAdv_CFL_v_max              =   5.2687242100811E-03
(PID.TID 0000.0001) %MON trAdv_CFL_w_max              =   1.3173140444560E-09
(PID.TID 0000.0001) %MON advcfl_uvel_max              =   1.9247725040856E-03
(PID.TID 0000.0001) %MON advcfl_vvel_max              =   5.2686402662119E-03
(PID.TID 0000.0001) %MON advcfl_wvel_max              =   5.2699156909715E-09
(PID.TID 0000.0001) %MON advcfl_W_hf_max              =   0.0000000000000E+00
(PID.TID 0000.0001) %MON pe_b_mean                    =   3.2456420157225E-07
(PID.TID 0000.0001) %MON ke_max                       =   3.8548436541830E-03
(PID.TID 0000.0001) %MON ke_mean                      =   1.3663907945717E-04
(PID.TID 0000.0001) %MON ke_vol                       =   7.2000000000000E+15
(PID.TID 0000.0001) %MON vort_r_min                   =  -1.5268096154065E-06
(PID.TID 0000.0001) %MON vort_r_max                   =   2.4170194857021E-06
(PID.TID 0000.0001) %MON vort_a_mean                  =   1.0600000000000E-04
(PID.TID 0000.0001) %MON vort_a_sd                    =   3.5374150565637E-06
(PID.TID 0000.0001) %MON vort_p_mean                  =   1.1130000000000E-04
(PID.TID 0000.0001) %MON vort_p_sd                    =   4.1152022195722E-05
(PID.TID 0000.0001) %MON surfExpan_theta_mean         =   5.4100368629406E-20
(PID.TID 0000.0001) %MON surfExpan_salt_mean          =   8.1149585816497E-20
(PID.TID 0000.0001) // =======================================================
(PID.TID 0000.0001) // End MONITOR dynamic field statistics
(PID.TID 0000.0001) // =======================================================
 cg2d: Sum(rhs),rhsMax =  -6.96845518574230E-04  1.46185848864825E-01
 cg2d: Sum(rhs),rhsMax =  -6.97123164711761E-04  1.46183012182254E-01
 cg2d: Sum(rhs),rhsMax =  -6.97400467206738E-04  1.46180165475980E-01
 cg2d: Sum(rhs),rhsMax =  -6.97677425577258E-04  1.46177308755423E-01
 cg2d: Sum(rhs),rhsMax =  -6.97954039379233E-04  1.46174442030029E-01
 cg2d: Sum(rhs),rhsMax =  -6.98230308102342E-04  1.46171565309261E-01
 cg2d: Sum(rhs),rhsMax =  -6.98506231362506E-04  1.46168678602601E-01
 cg2d: Sum(rhs),rhsMax =  -6.98781808644552E-04  1.46165781919553E-01
 cg2d: Sum(rhs),rhsMax =  -6.99057039642195E-04  1.46162875269639E-01
 cg2d: Sum(rhs),rhsMax =  -6.99331923701327E-04  1.46159958662402E-01
 cg2d: Sum(rhs),rhsMax =  -6.99606460439776E-04  1.46157032107403E-01
 cg2d: Sum(rhs),rhsMax =  -6.99880649361839E-04  1.46154095614225E-01
 cg2d: Sum(rhs),rhsMax =  -7.00154490055538E-04  1.46151149192469E-01
 cg2d: Sum(rhs),rhsMax =  -7.00509601873610E-04  1.46148192967619E-01
 cg2d: Sum(rhs),rhsMax =  -7.00864339043801E-04  1.46145226704240E-01
 cg2d: Sum(rhs),rhsMax =  -7.01218718939970E-04  1.46142250548671E-01
 cg2d: Sum(rhs),rhsMax =  -7.01572719197769E-04  1.46139264506988E-01
 cg2d: Sum(rhs),rhsMax =  -7.01926334864051E-04  1.46136268583950E-01
 cg2d: Sum(rhs),rhsMax =  -7.02279564574511E-04  1.46133262788468E-01
 cg2d: Sum(rhs),rhsMax =  -7.02632409795588E-04  1.46130247131965E-01
 cg2d: Sum(rhs),rhsMax =  -7.02984872028014E-04  1.46127221624807E-01
 cg2d: Sum(rhs),rhsMax =  -7.03336951998555E-04  1.46124186276665E-01
 cg2d: Sum(rhs),rhsMax =  -7.03688649041797E-04  1.46121141097060E-01
 cg2d: Sum(rhs),rhsMax =  -7.04039961715497E-04  1.46118086095677E-01
 cg2d: Sum(rhs),rhsMax =  -7.04390888556005E-04  1.46115021282362E-01
 cg2d: Sum(rhs),rhsMax =  -7.04741428283916E-04  1.46111946667028E-01
 cg2d: Sum(rhs),rhsMax =  -7.05091580073441E-04  1.46108862259595E-01
 cg2d: Sum(rhs),rhsMax =  -7.05441343046873E-04  1.46105768069972E-01
 cg2d: Sum(rhs),rhsMax =  -7.05790716591123E-04  1.46102664108067E-01
 cg2d: Sum(rhs),rhsMax =  -7.06139699999025E-04  1.46099550383804E-01
 cg2d: Sum(rhs),rhsMax =  -7.06488292320116E-04  1.46096426907125E-01
 cg2d: Sum(rhs),rhsMax =  -7.06836492771644E-04  1.46093293687998E-01
 cg2d: Sum(rhs),rhsMax =  -7.07184300392341E-04  1.46090150736412E-01
 cg2d: Sum(rhs),rhsMax =  -7.07531714329032E-04  1.46086998062375E-01
 cg2d: Sum(rhs),rhsMax =  -7.07878733665276E-04  1.46083835675914E-01
 cg2d: Sum(rhs),rhsMax =  -7.08225357658000E-04  1.46080663587073E-01
 cg2d: Sum(rhs),rhsMax =  -7.08571585303111E-04  1.46077481805918E-01
 cg2d: Sum(rhs),rhsMax =  -7.08917415824437E-04  1.46074290342529E-01
 cg2d: Sum(rhs),rhsMax =  -7.09262848359347E-04  1.46071089207013E-01
 cg2d: Sum(rhs),rhsMax =  -7.09607882070746E-04  1.46067878409490E-01
 cg2d: Sum(rhs),rhsMax =  -7.09952515920880E-04  1.46064657960102E-01
 cg2d: Sum(rhs),rhsMax =  -7.10296749316507E-04  1.46061427869007E-01
 cg2d: Sum(rhs),rhsMax =  -7.10640581296854E-04  1.46058188146384E-01
 cg2d: Sum(rhs),rhsMax =  -7.10984010833322E-04  1.46054938802430E-01
 cg2d: Sum(rhs),rhsMax =  -7.11327037166289E-04  1.46051679847360E-01
 cg2d: Sum(rhs),rhsMax =  -7.11669659510744E-04  1.46048411291406E-01
 cg2d: Sum(rhs),rhsMax =  -7.12011876956116E-04  1.46045133144822E-01
 cg2d: Sum(rhs),rhsMax =  -7.12353688653283E-04  1.46041845417879E-01
 cg2d: Sum(rhs),rhsMax =  -7.12695093598859E-04  1.46038548120867E-01
 cg2d: Sum(rhs),rhsMax =  -7.13036091152096E-04  1.46035241264095E-01
 cg2d: Sum(rhs),rhsMax =  -7.13376680201861E-04  1.46031924857890E-01
 cg2d: Sum(rhs),rhsMax =  -7.13716860078806E-04  1.46028598912598E-01
 cg2d: Sum(rhs),rhsMax =  -7.14056629872536E-04  1.46025263438583E-01
 cg2d: Sum(rhs),rhsMax =  -7.14395988566859E-04  1.46021918446228E-01
 cg2d: Sum(rhs),rhsMax =  -7.14734935542114E-04  1.46018563945933E-01
 cg2d: Sum(rhs),rhsMax =  -7.15073469751251E-04  1.46015199948118E-01
 cg2d: Sum(rhs),rhsMax =  -7.15411590439086E-04  1.46011826463221E-01
 cg2d: Sum(rhs),rhsMax =  -7.15749296579873E-04  1.46008443501698E-01
 cg2d: Sum(rhs),rhsMax =  -7.16086587566863E-04  1.46005051074023E-01
 cg2d: Sum(rhs),rhsMax =  -7.16423462243160E-04  1.46001649190690E-01
 cg2d: Sum(rhs),rhsMax =  -7.16759919978686E-04  1.45998237862208E-01
 cg2d: Sum(rhs),rhsMax =  -7.17095959807298E-04  1.45994817099108E-01
 cg2d: Sum(rhs),rhsMax =  -7.17431580817479E-04  1.45991386911936E-01
 cg2d: Sum(rhs),rhsMax =  -7.17766782195805E-04  1.45987947311259E-01
 cg2d: Sum(rhs),rhsMax =  -7.18101563099574E-04  1.45984498307660E-01
 cg2d: Sum(rhs),rhsMax =  -7.18435922686390E-04  1.45981039911740E-01
 cg2d: Sum(rhs),rhsMax =  -7.18769860022067E-04  1.45977572134119E-01
 cg2d: Sum(rhs),rhsMax =  -7.19103374381534E-04  1.45974094985436E-01
 cg2d: Sum(rhs),rhsMax =  -7.19436464716317E-04  1.45970608476347E-01
 cg2d: Sum(rhs),rhsMax =  -7.19769130314194E-04  1.45967112617524E-01
 cg2d: Sum(rhs),rhsMax =  -7.20101370232164E-04  1.45963607419661E-01
 cg2d: Sum(rhs),rhsMax =  -7.20433183670503E-04  1.45960092893466E-01
(PID.TID 0000.0001)      cg2d_init_res =   6.57079861968144E-04
(PID.TID 0000.0001)      cg2d_iters(min,last) =      -1      73
(PID.TID 0000.0001)      cg2d_last_res =   9.48954533535903E-08
(PID.TID 0000.0001) // =======================================================
(PID.TID 0000.0001) // Begin MONITOR dynamic field statistics
(PID.TID 0000.0001) // =======================================================
(PID.TID 0000.0001) %MON time_tsnumber                =                 14472
(PID.TID 0000.0001) %MON time_secondsf                =   1.7366400000000E+07
(PID.TID 0000.0001) %MON dynstat_eta_max              =   5.2328079654590E-02
(PID.TID 0000.0001) %MON dynstat_eta_min              =  -2.0146150047882E-02
(PID.TID 0000.0001) %MON dynstat_eta_mean             =   5.2600161849301E-07
(PID.TID 0000.0001) %MON dynstat_eta_sd               =   1.7974322420838E-02
(PID.TID 0000.0001) %MON dynstat_eta_del2             =   1.7922879507979E-05
(PID.TID 0000.0001) %MON dynstat_uvel_max             =   3.2080045689082E-02
(PID.TID 0000.0001) %MON dynstat_uvel_min             =  -1.7639761128115E-02
(PID.TID 0000.0001) %MON dynstat_uvel_mean            =   1.3485498972615E-07
(PID.TID 0000.0001) %MON dynstat_uvel_sd              =   6.6173496438631E-03
(PID.TID 0000.0001) %MON dynstat_uvel_del2            =   8.0333577590294E-06
(PID.TID 0000.0001) %MON dynstat_vvel_max             =   8.7698381624138E-02
(PID.TID 0000.0001) %MON dynstat_vvel_min             =  -2.9330577889756E-02
(PID.TID 0000.0001) %MON dynstat_vvel_mean            =   4.0497610475504E-09
(PID.TID 0000.0001) %MON dynstat_vvel_sd              =   1.5260475663174E-02
(PID.TID 0000.0001) %MON dynstat_vvel_del2            =   7.5719908809259E-05
(PID.TID 0000.0001) %MON dynstat_wvel_max             =   5.7665842142160E-09
(PID.TID 0000.0001) %MON dynstat_wvel_min             =  -1.0764780090540E-08
(PID.TID 0000.0001) %MON dynstat_wvel_mean            =   2.2891112570910E-21
(PID.TID 0000.0001) %MON dynstat_wvel_sd              =   4.3390732089220E-09
(PID.TID 0000.0001) %MON dynstat_wvel_del2            =   1.4357427433924E-12
(PID.TID 0000.0001) %MON dynstat_theta_max            =   2.0000000000000E+01
(PID.TID 0000.0001) %MON dynstat_theta_min            =   2.0000000000000E+01
(PID.TID 0000.0001) %MON dynstat_theta_mean           =   2.0000000000000E+01
(PID.TID 0000.0001) %MON dynstat_theta_sd             =   0.0000000000000E+00
(PID.TID 0000.0001) %MON dynstat_theta_del2           =   0.0000000000000E+00
(PID.TID 0000.0001) %MON dynstat_salt_max             =   3.0000000000000E+01
(PID.TID 0000.0001) %MON dynstat_salt_min             =   3.0000000000000E+01
(PID.TID 0000.0001) %MON dynstat_salt_mean            =   3.0000000000000E+01
(PID.TID 0000.0001) %MON dynstat_salt_sd              =   0.0000000000000E+00
(PID.TID 0000.0001) %MON dynstat_salt_del2            =   0.0000000000000E+00
(PID.TID 0000.0001) %MON trAdv_CFL_u_max              =   1.9248063788703E-03
(PID.TID 0000.0001) %MON trAdv_CFL_v_max              =   5.2619989356066E-03
(PID.TID 0000.0001) %MON trAdv_CFL_w_max              =   1.3828700029117E-09
(PID.TID 0000.0001) %MON advcfl_uvel_max              =   1.9248027413449E-03
(PID.TID 0000.0001) %MON advcfl_vvel_max              =   5.2619028974483E-03
(PID.TID 0000.0001) %MON advcfl_wvel_max              =   5.1670944434591E-09
(PID.TID 0000.0001) %MON advcfl_W_hf_max              =   0.0000000000000E+00
(PID.TID 0000.0001) %MON pe_b_mean                    =   3.1693781769639E-07
(PID.TID 0000.0001) %MON ke_max                       =   3.8453368814913E-03
(PID.TID 0000.0001) %MON ke_mean                      =   1.3603012161522E-04
(PID.TID 0000.0001) %MON ke_vol                       =   7.2000000000000E+15
(PID.TID 0000.0001) %MON vort_r_min                   =  -1.5285881755760E-06
(PID.TID 0000.0001) %MON vort_r_max                   =   2.4113013324862E-06
(PID.TID 0000.0001) %MON vort_a_mean                  =   1.0600000000000E-04
(PID.TID 0000.0001) %MON vort_a_sd                    =   3.5374185759180E-06
(PID.TID 0000.0001) %MON vort_p_mean                  =   1.1130000000000E-04
(PID.TID 0000.0001) %MON vort_p_sd                    =   4.1151931514327E-05
(PID.TID 0000.0001) %MON surfExpan_theta_mean         =   4.5772376012899E-20
(PID.TID 0000.0001) %MON surfExpan_salt_mean          =   6.8656194309982E-20
(PID.TID 0000.0001) // =======================================================
(PID.TID 0000.0001) // End MONITOR dynamic field statistics
(PID.TID 0000.0001) // =======================================================
 cg2d: Sum(rhs),rhsMax =  -7.20764569790417E-04  1.45956569049667E-01
 cg2d: Sum(rhs),rhsMax =  -7.21095527671823E-04  1.45953035899010E-01
 cg2d: Sum(rhs),rhsMax =  -7.21426056522433E-04  1.45949493452259E-01
 cg2d: Sum(rhs),rhsMax =  -7.21756155427539E-04  1.45945941720193E-01
 cg2d: Sum(rhs),rhsMax =  -7.22085823591934E-04  1.45942380713612E-01
 cg2d: Sum(rhs),rhsMax =  -7.22415060097703E-04  1.45938810443332E-01
 cg2d: Sum(rhs),rhsMax =  -7.22743864250352E-04  1.45935230920187E-01
 cg2d: Sum(rhs),rhsMax =  -7.23072234986231E-04  1.45931642155031E-01
 cg2d: Sum(rhs),rhsMax =  -7.23400171630130E-04  1.45928044158731E-01
 cg2d: Sum(rhs),rhsMax =  -7.23727673306541E-04  1.45924436942176E-01
 cg2d: Sum(rhs),rhsMax =  -7.24054739095012E-04  1.45920820516269E-01
 cg2d: Sum(rhs),rhsMax =  -7.24381368319885E-04  1.45917194891935E-01
 cg2d: Sum(rhs),rhsMax =  -7.24707559999097E-04  1.45913560080110E-01
 cg2d: Sum(rhs),rhsMax =  -7.25033313421920E-04  1.45909916091754E-01
 cg2d: Sum(rhs),rhsMax =  -7.25358627611783E-04  1.45906262937841E-01
 cg2d: Sum(rhs),rhsMax =  -7.25683501797478E-04  1.45902600629363E-01
 cg2d: Sum(rhs),rhsMax =  -7.26007935202685E-04  1.45898929177329E-01
 cg2d: Sum(rhs),rhsMax =  -7.26331926984113E-04  1.45895248592766E-01
 cg2d: Sum(rhs),rhsMax =  -7.26655476281426E-04  1.45891558886720E-01
 cg2d: Sum(rhs),rhsMax =  -7.26978582285097E-04  1.45887860070250E-01
 cg2d: Sum(rhs),rhsMax =  -7.27301244210216E-04  1.45884152154436E-01
 cg2d: Sum(rhs),rhsMax =  -7.27623461135031E-04  1.45880435150374E-01
 cg2d: Sum(rhs),rhsMax =  -7.27945232425097E-04  1.45876709069178E-01
 cg2d: Sum(rhs),rhsMax =  -7.28266557196080E-04  1.45872973921975E-01
 cg2d: Sum(rhs),rhsMax =  -7.28587434557107E-04  1.45869229719916E-01
 cg2d: Sum(rhs),rhsMax =  -7.28907863807075E-04  1.45865476474165E-01
 cg2d: Sum(rhs),rhsMax =  -7.29227844161558E-04  1.45861714195901E-01
 cg2d: Sum(rhs),rhsMax =  -7.29547374687885E-04  1.45857942896326E-01
 cg2d: Sum(rhs),rhsMax =  -7.29866454685105E-04  1.45854162586654E-01
 cg2d: Sum(rhs),rhsMax =  -7.30185083436970E-04  1.45850373278117E-01
 cg2d: Sum(rhs),rhsMax =  -7.30503259981891E-04  1.45846574981966E-01
 cg2d: Sum(rhs),rhsMax =  -7.30820983731362E-04  1.45842767709467E-01
 cg2d: Sum(rhs),rhsMax =  -7.31138253823180E-04  1.45838951471904E-01
 cg2d: Sum(rhs),rhsMax =  -7.31455069418296E-04  1.45835126280575E-01
 cg2d: Sum(rhs),rhsMax =  -7.31771429845272E-04  1.45831292146800E-01
 cg2d: Sum(rhs),rhsMax =  -7.32087334315288E-04  1.45827449081911E-01
 cg2d: Sum(rhs),rhsMax =  -7.32402782056323E-04  1.45823597097260E-01
 cg2d: Sum(rhs),rhsMax =  -7.32717772284812E-04  1.45819736204212E-01
 cg2d: Sum(rhs),rhsMax =  -7.33032304254522E-04  1.45815866414154E-01
 cg2d: Sum(rhs),rhsMax =  -7.33346377333975E-04  1.45811987738483E-01
 cg2d: Sum(rhs),rhsMax =  -7.33659990536382E-04  1.45808100188620E-01
 cg2d: Sum(rhs),rhsMax =  -7.33973143373606E-04  1.45804203775996E-01
 cg2d: Sum(rhs),rhsMax =  -7.34285834980664E-04  1.45800298512063E-01
 cg2d: Sum(rhs),rhsMax =  -7.34598064682161E-04  1.45796384408289E-01
 cg2d: Sum(rhs),rhsMax =  -7.34909831747317E-04  1.45792461476154E-01
 cg2d: Sum(rhs),rhsMax =  -7.35221135415752E-04  1.45788529727161E-01
 cg2d: Sum(rhs),rhsMax =  -7.35531975022720E-04  1.45784589172825E-01
 cg2d: Sum(rhs),rhsMax =  -7.35842349850502E-04  1.45780639824678E-01
 cg2d: Sum(rhs),rhsMax =  -7.36152259166080E-04  1.45776681694272E-01
 cg2d: Sum(rhs),rhsMax =  -7.36461702325587E-04  1.45772714793170E-01
 cg2d: Sum(rhs),rhsMax =  -7.36770678547128E-04  1.45768739132953E-01
 cg2d: Sum(rhs),rhsMax =  -7.37079187323091E-04  1.45764754725222E-01
 cg2d: Sum(rhs),rhsMax =  -7.37387227795563E-04  1.45760761581589E-01
 cg2d: Sum(rhs),rhsMax =  -7.37694799436379E-04  1.45756759713684E-01
 cg2d: Sum(rhs),rhsMax =  -7.38001901443264E-04  1.45752749133156E-01
 cg2d: Sum(rhs),rhsMax =  -7.38308533304100E-04  1.45748729851665E-01
 cg2d: Sum(rhs),rhsMax =  -7.38614694198134E-04  1.45744701880892E-01
 cg2d: Sum(rhs),rhsMax =  -7.38920383638876E-04  1.45740665232531E-01
 cg2d: Sum(rhs),rhsMax =  -7.39225600977576E-04  1.45736619918293E-01
 cg2d: Sum(rhs),rhsMax =  -7.39530345512609E-04  1.45732565949905E-01
 cg2d: Sum(rhs),rhsMax =  -7.39834616663135E-04  1.45728503339111E-01
 cg2d: Sum(rhs),rhsMax =  -7.40138413832215E-04  1.45724432097668E-01
 cg2d: Sum(rhs),rhsMax =  -7.40441736376798E-04  1.45720352237352E-01
 cg2d: Sum(rhs),rhsMax =  -7.40744583716261E-04  1.45716263769953E-01
 cg2d: Sum(rhs),rhsMax =  -7.41046955286096E-04  1.45712166707278E-01
 cg2d: Sum(rhs),rhsMax =  -7.41348850430556E-04  1.45708061061149E-01
 cg2d: Sum(rhs),rhsMax =  -7.41650268559593E-04  1.45703946843405E-01
 cg2d: Sum(rhs),rhsMax =  -7.41951209357458E-04  1.45699824065899E-01
 cg2d: Sum(rhs),rhsMax =  -7.42251671947899E-04  1.45695692740500E-01
 cg2d: Sum(rhs),rhsMax =  -7.42551655958599E-04  1.45691552879095E-01
 cg2d: Sum(rhs),rhsMax =  -7.42851160851894E-04  1.45687404493584E-01
 cg2d: Sum(rhs),rhsMax =  -7.43150186067320E-04  1.45683247595883E-01
(PID.TID 0000.0001)      cg2d_init_res =   6.55633371962503E-04
(PID.TID 0000.0001)      cg2d_iters(min,last) =      -1      73
(PID.TID 0000.0001)      cg2d_last_res =   8.71630973155317E-08
(PID.TID 0000.0001) // =======================================================
(PID.TID 0000.0001) // Begin MONITOR dynamic field statistics
(PID.TID 0000.0001) // =======================================================
(PID.TID 0000.0001) %MON time_tsnumber                =                 14544
(PID.TID 0000.0001) %MON time_secondsf                =   1.7452800000000E+07
(PID.TID 0000.0001) %MON dynstat_eta_max              =   5.2345131954532E-02
(PID.TID 0000.0001) %MON dynstat_eta_min              =  -1.9937230408603E-02
(PID.TID 0000.0001) %MON dynstat_eta_mean             =   5.4152464399786E-07
(PID.TID 0000.0001) %MON dynstat_eta_sd               =   1.7751086628430E-02
(PID.TID 0000.0001) %MON dynstat_eta_del2             =   1.7947704194625E-05
(PID.TID 0000.0001) %MON dynstat_uvel_max             =   3.2070809900270E-02
(PID.TID 0000.0001) %MON dynstat_uvel_min             =  -1.7572598863163E-02
(PID.TID 0000.0001) %MON dynstat_uvel_mean            =   1.4672611382920E-07
(PID.TID 0000.0001) %MON dynstat_uvel_sd              =   6.5472379912379E-03
(PID.TID 0000.0001) %MON dynstat_uvel_del2            =   7.9977293425611E-06
(PID.TID 0000.0001) %MON dynstat_vvel_max             =   8.7567606168455E-02
(PID.TID 0000.0001) %MON dynstat_vvel_min             =  -2.9551183727913E-02
(PID.TID 0000.0001) %MON dynstat_vvel_mean            =   3.5792319555003E-09
(PID.TID 0000.0001) %MON dynstat_vvel_sd              =   1.5246026959972E-02
(PID.TID 0000.0001) %MON dynstat_vvel_del2            =   7.5745881761792E-05
(PID.TID 0000.0001) %MON dynstat_wvel_max             =   6.0780828775023E-09
(PID.TID 0000.0001) %MON dynstat_wvel_min             =  -1.0528893558076E-08
(PID.TID 0000.0001) %MON dynstat_wvel_mean            =  -2.4108380279762E-21
(PID.TID 0000.0001) %MON dynstat_wvel_sd              =   4.3241301003883E-09
(PID.TID 0000.0001) %MON dynstat_wvel_del2            =   1.4204105729353E-12
(PID.TID 0000.0001) %MON dynstat_theta_max            =   2.0000000000000E+01
(PID.TID 0000.0001) %MON dynstat_theta_min            =   2.0000000000000E+01
(PID.TID 0000.0001) %MON dynstat_theta_mean           =   2.0000000000000E+01
(PID.TID 0000.0001) %MON dynstat_theta_sd             =   0.0000000000000E+00
(PID.TID 0000.0001) %MON dynstat_theta_del2           =   0.0000000000000E+00
(PID.TID 0000.0001) %MON dynstat_salt_max             =   3.0000000000000E+01
(PID.TID 0000.0001) %MON dynstat_salt_min             =   3.0000000000000E+01
(PID.TID 0000.0001) %MON dynstat_salt_mean            =   3.0000000000000E+01
(PID.TID 0000.0001) %MON dynstat_salt_sd              =   0.0000000000000E+00
(PID.TID 0000.0001) %MON dynstat_salt_del2            =   0.0000000000000E+00
(PID.TID 0000.0001) %MON trAdv_CFL_u_max              =   1.9242601758953E-03
(PID.TID 0000.0001) %MON trAdv_CFL_v_max              =   5.2541776412755E-03
(PID.TID 0000.0001) %MON trAdv_CFL_w_max              =   1.4576062884356E-09
(PID.TID 0000.0001) %MON advcfl_uvel_max              =   1.9242485940162E-03
(PID.TID 0000.0001) %MON advcfl_vvel_max              =   5.2540563701073E-03
(PID.TID 0000.0001) %MON advcfl_wvel_max              =   5.0538689078763E-09
(PID.TID 0000.0001) %MON advcfl_W_hf_max              =   0.0000000000000E+00
(PID.TID 0000.0001) %MON pe_b_mean                    =   3.0911415632439E-07
(PID.TID 0000.0001) %MON ke_max                       =   3.8331225773409E-03
(PID.TID 0000.0001) %MON ke_mean                      =   1.3535960117150E-04
(PID.TID 0000.0001) %MON ke_vol                       =   7.2000000000000E+15
(PID.TID 0000.0001) %MON vort_r_min                   =  -1.5301181439148E-06
(PID.TID 0000.0001) %MON vort_r_max                   =   2.4048286185322E-06
(PID.TID 0000.0001) %MON vort_a_mean                  =   1.0600000000000E-04
(PID.TID 0000.0001) %MON vort_a_sd                    =   3.5374131645384E-06
(PID.TID 0000.0001) %MON vort_p_mean                  =   1.1130000000000E-04
(PID.TID 0000.0001) %MON vort_p_sd                    =   4.1151843531447E-05
(PID.TID 0000.0001) %MON surfExpan_theta_mean         =  -4.8222048576463E-20
(PID.TID 0000.0001) %MON surfExpan_salt_mean          =  -7.2333566297150E-20
(PID.TID 0000.0001) // =======================================================
(PID.TID 0000.0001) // End MONITOR dynamic field statistics
(PID.TID 0000.0001) // =======================================================
 cg2d: Sum(rhs),rhsMax =  -7.43448731061060E-04  1.45679082197924E-01
 cg2d: Sum(rhs),rhsMax =  -7.43746795330469E-04  1.45674908311655E-01
 cg2d: Sum(rhs),rhsMax =  -7.44133000525078E-04  1.45670726165279E-01
 cg2d: Sum(rhs),rhsMax =  -7.44518692749753E-04  1.45666535295227E-01
 cg2d: Sum(rhs),rhsMax =  -7.44903802881744E-04  1.45662336007044E-01
 cg2d: Sum(rhs),rhsMax =  -7.45288345024441E-04  1.45658128285579E-01
 cg2d: Sum(rhs),rhsMax =  -7.45672319792992E-04  1.45653912133239E-01
 cg2d: Sum(rhs),rhsMax =  -7.46055727241236E-04  1.45649687563000E-01
 cg2d: Sum(rhs),rhsMax =  -7.46438567165772E-04  1.45645454588258E-01
 cg2d: Sum(rhs),rhsMax =  -7.46820839003414E-04  1.45641213221577E-01
 cg2d: Sum(rhs),rhsMax =  -7.47202542374535E-04  1.45636963475015E-01
 cg2d: Sum(rhs),rhsMax =  -7.47583676575559E-04  1.45632705360526E-01
 cg2d: Sum(rhs),rhsMax =  -7.47964241011305E-04  1.45628438890143E-01
 cg2d: Sum(rhs),rhsMax =  -7.48344235033701E-04  1.45624164075993E-01
 cg2d: Sum(rhs),rhsMax =  -7.48723657965567E-04  1.45619880930241E-01
 cg2d: Sum(rhs),rhsMax =  -7.49102509280544E-04  1.45615589465068E-01
 cg2d: Sum(rhs),rhsMax =  -7.49480788301451E-04  1.45611289692661E-01
 cg2d: Sum(rhs),rhsMax =  -7.49858494614255E-04  1.45606981625213E-01
 cg2d: Sum(rhs),rhsMax =  -7.50235627751206E-04  1.45602665274927E-01
 cg2d: Sum(rhs),rhsMax =  -7.50612187125368E-04  1.45598340654027E-01
 cg2d: Sum(rhs),rhsMax =  -7.50988172238805E-04  1.45594007774748E-01
 cg2d: Sum(rhs),rhsMax =  -7.51363582557483E-04  1.45589666649338E-01
 cg2d: Sum(rhs),rhsMax =  -7.51738417750769E-04  1.45585317290065E-01
 cg2d: Sum(rhs),rhsMax =  -7.52112677208848E-04  1.45580959709209E-01
 cg2d: Sum(rhs),rhsMax =  -7.52486360659840E-04  1.45576593919063E-01
 cg2d: Sum(rhs),rhsMax =  -7.52859467645010E-04  1.45572219931937E-01
 cg2d: Sum(rhs),rhsMax =  -7.53231997735668E-04  1.45567837760160E-01
 cg2d: Sum(rhs),rhsMax =  -7.53603950532133E-04  1.45563447416071E-01
 cg2d: Sum(rhs),rhsMax =  -7.53975325619285E-04  1.45559048912025E-01
 cg2d: Sum(rhs),rhsMax =  -7.54346122757255E-04  1.45554642260392E-01
 cg2d: Sum(rhs),rhsMax =  -7.54716341541295E-04  1.45550227473556E-01
 cg2d: Sum(rhs),rhsMax =  -7.55085981689914E-04  1.45545804563915E-01
 cg2d: Sum(rhs),rhsMax =  -7.55455042920921E-04  1.45541373543882E-01
 cg2d: Sum(rhs),rhsMax =  -7.55823524819769E-04  1.45536934425885E-01
 cg2d: Sum(rhs),rhsMax =  -7.56191427338024E-04  1.45532487222364E-01
 cg2d: Sum(rhs),rhsMax =  -7.56558749997493E-04  1.45528031945775E-01
 cg2d: Sum(rhs),rhsMax =  -7.56925492788470E-04  1.45523568608590E-01
 cg2d: Sum(rhs),rhsMax =  -7.57291655290773E-04  1.45519097223293E-01
 cg2d: Sum(rhs),rhsMax =  -7.57657237463267E-04  1.45514617802384E-01
 cg2d: Sum(rhs),rhsMax =  -7.58022239148063E-04  1.45510130358375E-01
 cg2d: Sum(rhs),rhsMax =  -7.58386659996993E-04  1.45505634903795E-01
 cg2d: Sum(rhs),rhsMax =  -7.58750500123123E-04  1.45501131451186E-01
 cg2d: Sum(rhs),rhsMax =  -7.59113759277239E-04  1.45496620013103E-01
 cg2d: Sum(rhs),rhsMax =  -7.59476437448525E-04  1.45492100602116E-01
 cg2d: Sum(rhs),rhsMax =  -7.59838534412105E-04  1.45487573230811E-01
 cg2d: Sum(rhs),rhsMax =  -7.60200050267484E-04  1.45483037911785E-01
 cg2d: Sum(rhs),rhsMax =  -7.60560984973054E-04  1.45478494657650E-01
 cg2d: Sum(rhs),rhsMax =  -7.60921338401506E-04  1.45473943481033E-01
 cg2d: Sum(rhs),rhsMax =  -7.61281110606203E-04  1.45469384394573E-01
 cg2d: Sum(rhs),rhsMax =  -7.61640301746838E-04  1.45464817410926E-01
 cg2d: Sum(rhs),rhsMax =  -7.61998911797898E-04  1.45460242542759E-01
 cg2d: Sum(rhs),rhsMax =  -7.62356940778013E-04  1.45455659802754E-01
 cg2d: Sum(rhs),rhsMax =  -7.62714388876452E-04  1.45451069203607E-01
 cg2d: Sum(rhs),rhsMax =  -7.63071256192090E-04  1.45446470758027E-01
 cg2d: Sum(rhs),rhsMax =  -7.63427542866810E-04  1.45441864478738E-01
 cg2d: Sum(rhs),rhsMax =  -7.63783249035867E-04  1.45437250378476E-01
 cg2d: Sum(rhs),rhsMax =  -7.64138374923117E-04  1.45432628469992E-01
 cg2d: Sum(rhs),rhsMax =  -7.64492920720601E-04  1.45427998766050E-01
 cg2d: Sum(rhs),rhsMax =  -7.64846886735647E-04  1.45423361279428E-01
 cg2d: Sum(rhs),rhsMax =  -7.65200273181703E-04  1.45418716022919E-01
 cg2d: Sum(rhs),rhsMax =  -7.65553080436718E-04  1.45414063009325E-01
 cg2d: Sum(rhs),rhsMax =  -7.65905308703190E-04  1.45409402251467E-01
 cg2d: Sum(rhs),rhsMax =  -7.66256958295819E-04  1.45404733762176E-01
 cg2d: Sum(rhs),rhsMax =  -7.66608029694631E-04  1.45400057554298E-01
 cg2d: Sum(rhs),rhsMax =  -7.66958523245200E-04  1.45395373640690E-01
 cg2d: Sum(rhs),rhsMax =  -7.67308439428374E-04  1.45390682034226E-01
 cg2d: Sum(rhs),rhsMax =  -7.67657778619516E-04  1.45385982747790E-01
 cg2d: Sum(rhs),rhsMax =  -7.68006541274143E-04  1.45381275794282E-01
 cg2d: Sum(rhs),rhsMax =  -7.68354727965615E-04  1.45376561186614E-01
 cg2d: Sum(rhs),rhsMax =  -7.68702339129668E-04  1.45371838937709E-01
 cg2d: Sum(rhs),rhsMax =  -7.69049375411695E-04  1.45367109060509E-01
 cg2d: Sum(rhs),rhsMax =  -7.69395837269132E-04  1.45362371567963E-01
(PID.TID 0000.0001)      cg2d_init_res =   6.54806787736941E-04
(PID.TID 0000.0001)      cg2d_iters(min,last) =      -1      72
(PID.TID 0000.0001)      cg2d_last_res =   9.03238801178215E-08
(PID.TID 0000.0001) // =======================================================
(PID.TID 0000.0001) // Begin MONITOR dynamic field statistics
(PID.TID 0000.0001) // =======================================================
(PID.TID 0000.0001) %MON time_tsnumber                =                 14616
(PID.TID 0000.0001) %MON time_secondsf                =   1.7539200000000E+07
(PID.TID 0000.0001) %MON dynstat_eta_max              =   5.2308004566341E-02
(PID.TID 0000.0001) %MON dynstat_eta_min              =  -1.9752840504467E-02
(PID.TID 0000.0001) %MON dynstat_eta_mean             =   5.5943915110607E-07
(PID.TID 0000.0001) %MON dynstat_eta_sd               =   1.7522373331319E-02
(PID.TID 0000.0001) %MON dynstat_eta_del2             =   1.7969836347029E-05
(PID.TID 0000.0001) %MON dynstat_uvel_max             =   3.2052289730882E-02
(PID.TID 0000.0001) %MON dynstat_uvel_min             =  -1.7493253189313E-02
(PID.TID 0000.0001) %MON dynstat_uvel_mean            =   1.5641292925068E-07
(PID.TID 0000.0001) %MON dynstat_uvel_sd              =   6.4800786567624E-03
(PID.TID 0000.0001) %MON dynstat_uvel_del2            =   7.9634514191756E-06
(PID.TID 0000.0001) %MON dynstat_vvel_max             =   8.7407694568399E-02
(PID.TID 0000.0001) %MON dynstat_vvel_min             =  -2.9771810500485E-02
(PID.TID 0000.0001) %MON dynstat_vvel_mean            =   3.0603833888326E-09
(PID.TID 0000.0001) %MON dynstat_vvel_sd              =   1.5226580975409E-02
(PID.TID 0000.0001) %MON dynstat_vvel_del2            =   7.5753420176034E-05
(PID.TID 0000.0001) %MON dynstat_wvel_max             =   6.3946043220494E-09
(PID.TID 0000.0001) %MON dynstat_wvel_min             =  -1.0286069327267E-08
(PID.TID 0000.0001) %MON dynstat_wvel_mean            =   2.9045516688105E-21
(PID.TID 0000.0001) %MON dynstat_wvel_sd              =   4.3062027949592E-09
(PID.TID 0000.0001) %MON dynstat_wvel_del2            =   1.4080720573501E-12
(PID.TID 0000.0001) %MON dynstat_theta_max            =   2.0000000000000E+01
(PID.TID 0000.0001) %MON dynstat_theta_min            =   2.0000000000000E+01
(PID.TID 0000.0001) %MON dynstat_theta_mean           =   2.0000000000000E+01
(PID.TID 0000.0001) %MON dynstat_theta_sd             =   0.0000000000000E+00
(PID.TID 0000.0001) %MON dynstat_theta_del2           =   0.0000000000000E+00
(PID.TID 0000.0001) %MON dynstat_salt_max             =   3.0000000000000E+01
(PID.TID 0000.0001) %MON dynstat_salt_min             =   3.0000000000000E+01
(PID.TID 0000.0001) %MON dynstat_salt_mean            =   3.0000000000000E+01
(PID.TID 0000.0001) %MON dynstat_salt_sd              =   0.0000000000000E+00
(PID.TID 0000.0001) %MON dynstat_salt_del2            =   0.0000000000000E+00
(PID.TID 0000.0001) %MON trAdv_CFL_u_max              =   1.9231564868612E-03
(PID.TID 0000.0001) %MON trAdv_CFL_v_max              =   5.2446062586562E-03
(PID.TID 0000.0001) %MON trAdv_CFL_w_max              =   1.5335623201216E-09
(PID.TID 0000.0001) %MON advcfl_uvel_max              =   1.9231373838529E-03
(PID.TID 0000.0001) %MON advcfl_vvel_max              =   5.2444616741040E-03
(PID.TID 0000.0001) %MON advcfl_wvel_max              =   4.9373132770881E-09
(PID.TID 0000.0001) %MON advcfl_W_hf_max              =   0.0000000000000E+00
(PID.TID 0000.0001) %MON pe_b_mean                    =   3.0119992969307E-07
(PID.TID 0000.0001) %MON ke_max                       =   3.8184050408751E-03
(PID.TID 0000.0001) %MON ke_mean                      =   1.3463809224797E-04
(PID.TID 0000.0001) %MON ke_vol                       =   7.2000000000000E+15
(PID.TID 0000.0001) %MON vort_r_min                   =  -1.5313858045648E-06
(PID.TID 0000.0001) %MON vort_r_max                   =   2.3976892122788E-06
(PID.TID 0000.0001) %MON vort_a_mean                  =   1.0600000000000E-04
(PID.TID 0000.0001) %MON vort_a_sd                    =   3.5373992362581E-06
(PID.TID 0000.0001) %MON vort_p_mean                  =   1.1130000000000E-04
(PID.TID 0000.0001) %MON vort_p_sd                    =   4.1151759071633E-05
(PID.TID 0000.0001) %MON surfExpan_theta_mean         =   5.8093026685431E-20
(PID.TID 0000.0001) %MON surfExpan_salt_mean          =   8.7138118942676E-20
(PID.TID 0000.0001) // =======================================================
(PID.TID 0000.0001) // End MONITOR dynamic field statistics
(PID.TID 0000.0001) // =======================================================
 cg2d: Sum(rhs),rhsMax =  -7.69741725537731E-04  1.45357626473037E-01
 cg2d: Sum(rhs),rhsMax =  -7.70087040636989E-04  1.45352873788708E-01
 cg2d: Sum(rhs),rhsMax =  -7.70431783337302E-04  1.45348113527966E-01
 cg2d: Sum(rhs),rhsMax =  -7.70775954332689E-04  1.45343345703817E-01
 cg2d: Sum(rhs),rhsMax =  -7.71119554220544E-04  1.45338570329276E-01
 cg2d: Sum(rhs),rhsMax =  -7.71462583953505E-04  1.45333787417374E-01
 cg2d: Sum(rhs),rhsMax =  -7.71805044267291E-04  1.45328996981152E-01
 cg2d: Sum(rhs),rhsMax =  -7.72146935946272E-04  1.45324199033667E-01
 cg2d: Sum(rhs),rhsMax =  -7.72488259890120E-04  1.45319393587987E-01
 cg2d: Sum(rhs),rhsMax =  -7.72829016882527E-04  1.45314580657193E-01
 cg2d: Sum(rhs),rhsMax =  -7.73169207966321E-04  1.45309760254380E-01
 cg2d: Sum(rhs),rhsMax =  -7.73508834010789E-04  1.45304932392652E-01
 cg2d: Sum(rhs),rhsMax =  -7.73847896009388E-04  1.45300097085130E-01
 cg2d: Sum(rhs),rhsMax =  -7.74186394942976E-04  1.45295254344946E-01
 cg2d: Sum(rhs),rhsMax =  -7.74524331959704E-04  1.45290404185246E-01
 cg2d: Sum(rhs),rhsMax =  -7.74861707948550E-04  1.45285546619184E-01
 cg2d: Sum(rhs),rhsMax =  -7.75198524298313E-04  1.45280681659933E-01
 cg2d: Sum(rhs),rhsMax =  -7.75534781941273E-04  1.45275809320672E-01
 cg2d: Sum(rhs),rhsMax =  -7.75870482038273E-04  1.45270929614599E-01
 cg2d: Sum(rhs),rhsMax =  -7.76205625996663E-04  1.45266042554919E-01
 cg2d: Sum(rhs),rhsMax =  -7.76540214908991E-04  1.45261148154852E-01
 cg2d: Sum(rhs),rhsMax =  -7.76874250161134E-04  1.45256246427632E-01
 cg2d: Sum(rhs),rhsMax =  -7.77207732968179E-04  1.45251337386500E-01
 cg2d: Sum(rhs),rhsMax =  -7.77540664825496E-04  1.45246421044714E-01
 cg2d: Sum(rhs),rhsMax =  -7.77873047029751E-04  1.45241497415544E-01
 cg2d: Sum(rhs),rhsMax =  -7.78204881045750E-04  1.45236566512270E-01
 cg2d: Sum(rhs),rhsMax =  -7.78536168340694E-04  1.45231628348186E-01
 cg2d: Sum(rhs),rhsMax =  -7.78866910530670E-04  1.45226682936597E-01
 cg2d: Sum(rhs),rhsMax =  -7.79197108971043E-04  1.45221730290820E-01
 cg2d: Sum(rhs),rhsMax =  -7.79526765372977E-04  1.45216770424185E-01
 cg2d: Sum(rhs),rhsMax =  -7.79855881331963E-04  1.45211803350035E-01
 cg2d: Sum(rhs),rhsMax =  -7.80184458624165E-04  1.45206829081723E-01
 cg2d: Sum(rhs),rhsMax =  -7.80512498874749E-04  1.45201847632613E-01
 cg2d: Sum(rhs),rhsMax =  -7.80840003862328E-04  1.45196859016086E-01
 cg2d: Sum(rhs),rhsMax =  -7.81166975301052E-04  1.45191863245529E-01
 cg2d: Sum(rhs),rhsMax =  -7.81493415161934E-04  1.45186860334344E-01
 cg2d: Sum(rhs),rhsMax =  -7.81819325232191E-04  1.45181850295945E-01
 cg2d: Sum(rhs),rhsMax =  -7.82144707406359E-04  1.45176833143756E-01
 cg2d: Sum(rhs),rhsMax =  -7.82469563675751E-04  1.45171808891216E-01
 cg2d: Sum(rhs),rhsMax =  -7.82793896047253E-04  1.45166777551771E-01
 cg2d: Sum(rhs),rhsMax =  -7.83117706657063E-04  1.45161739138883E-01
 cg2d: Sum(rhs),rhsMax =  -7.83440997460926E-04  1.45156693666023E-01
 cg2d: Sum(rhs),rhsMax =  -7.83763770655362E-04  1.45151641146675E-01
 cg2d: Sum(rhs),rhsMax =  -7.84086028447669E-04  1.45146581594334E-01
 cg2d: Sum(rhs),rhsMax =  -7.84407773034171E-04  1.45141515022507E-01
 cg2d: Sum(rhs),rhsMax =  -7.84729006761143E-04  1.45136441444712E-01
 cg2d: Sum(rhs),rhsMax =  -7.85049731842851E-04  1.45131360874478E-01
 cg2d: Sum(rhs),rhsMax =  -7.85369950721608E-04  1.45126273325348E-01
 cg2d: Sum(rhs),rhsMax =  -7.85791230958772E-04  1.45121178912386E-01
 cg2d: Sum(rhs),rhsMax =  -7.86211842088196E-04  1.45116077399035E-01
 cg2d: Sum(rhs),rhsMax =  -7.86631880987732E-04  1.45110968990578E-01
 cg2d: Sum(rhs),rhsMax =  -7.87051307255555E-04  1.45105853658426E-01
 cg2d: Sum(rhs),rhsMax =  -7.87470127193350E-04  1.45100731413482E-01
 cg2d: Sum(rhs),rhsMax =  -7.87888343776035E-04  1.45095602269703E-01
 cg2d: Sum(rhs),rhsMax =  -7.88305959072415E-04  1.45090466242078E-01
 cg2d: Sum(rhs),rhsMax =  -7.88722974898627E-04  1.45085323344426E-01
 cg2d: Sum(rhs),rhsMax =  -7.89139393329072E-04  1.45080173590401E-01
 cg2d: Sum(rhs),rhsMax =  -7.89555216322027E-04  1.45075016993559E-01
 cg2d: Sum(rhs),rhsMax =  -7.89970446253142E-04  1.45069853567522E-01
 cg2d: Sum(rhs),rhsMax =  -7.90385085320923E-04  1.45064683325956E-01
 cg2d: Sum(rhs),rhsMax =  -7.90799135818940E-04  1.45059506282556E-01
 cg2d: Sum(rhs),rhsMax =  -7.91212600126808E-04  1.45054322451027E-01
 cg2d: Sum(rhs),rhsMax =  -7.91625480631026E-04  1.45049131845083E-01
 cg2d: Sum(rhs),rhsMax =  -7.92037779805599E-04  1.45043934478449E-01
 cg2d: Sum(rhs),rhsMax =  -7.92449500117532E-04  1.45038730364856E-01
 cg2d: Sum(rhs),rhsMax =  -7.92860644161705E-04  1.45033519518047E-01
 cg2d: Sum(rhs),rhsMax =  -7.93271214470550E-04  1.45028301951774E-01
 cg2d: Sum(rhs),rhsMax =  -7.93681213873236E-04  1.45023077679798E-01
 cg2d: Sum(rhs),rhsMax =  -7.94090644952701E-04  1.45017846715890E-01
 cg2d: Sum(rhs),rhsMax =  -7.94499510569033E-04  1.45012609073832E-01
 cg2d: Sum(rhs),rhsMax =  -7.94907813518937E-04  1.45007364767414E-01
 cg2d: Sum(rhs),rhsMax =  -7.95315556838405E-04  1.45002113810445E-01
(PID.TID 0000.0001)      cg2d_init_res =   6.54445985989208E-04
(PID.TID 0000.0001)      cg2d_iters(min,last) =      -1      71
(PID.TID 0000.0001)      cg2d_last_res =   9.52885424801934E-08
(PID.TID 0000.0001) // =======================================================
(PID.TID 0000.0001) // Begin MONITOR dynamic field statistics
(PID.TID 0000.0001) // =======================================================
(PID.TID 0000.0001) %MON time_tsnumber                =                 14688
(PID.TID 0000.0001) %MON time_secondsf                =   1.7625600000000E+07
(PID.TID 0000.0001) %MON dynstat_eta_max              =   5.2223944891694E-02
(PID.TID 0000.0001) %MON dynstat_eta_min              =  -1.9594792226890E-02
(PID.TID 0000.0001) %MON dynstat_eta_mean             =   5.7688648092967E-07
(PID.TID 0000.0001) %MON dynstat_eta_sd               =   1.7291076570059E-02
(PID.TID 0000.0001) %MON dynstat_eta_del2             =   1.7989136513671E-05
(PID.TID 0000.0001) %MON dynstat_uvel_max             =   3.2025043949049E-02
(PID.TID 0000.0001) %MON dynstat_uvel_min             =  -1.7403067712656E-02
(PID.TID 0000.0001) %MON dynstat_uvel_mean            =   1.6381932883850E-07
(PID.TID 0000.0001) %MON dynstat_uvel_sd              =   6.4166514770309E-03
(PID.TID 0000.0001) %MON dynstat_uvel_del2            =   7.9306530178690E-06
(PID.TID 0000.0001) %MON dynstat_vvel_max             =   8.7221092247044E-02
(PID.TID 0000.0001) %MON dynstat_vvel_min             =  -2.9990047707708E-02
(PID.TID 0000.0001) %MON dynstat_vvel_mean            =   2.5047307868178E-09
(PID.TID 0000.0001) %MON dynstat_vvel_sd              =   1.5202560883620E-02
(PID.TID 0000.0001) %MON dynstat_vvel_del2            =   7.5743127840277E-05
(PID.TID 0000.0001) %MON dynstat_wvel_max             =   6.7341718744137E-09
(PID.TID 0000.0001) %MON dynstat_wvel_min             =  -1.0015935867559E-08
(PID.TID 0000.0001) %MON dynstat_wvel_mean            =   1.5146838450164E-22
(PID.TID 0000.0001) %MON dynstat_wvel_sd              =   4.2850219542548E-09
(PID.TID 0000.0001) %MON dynstat_wvel_del2            =   1.3968863139169E-12
(PID.TID 0000.0001) %MON dynstat_theta_max            =   2.0000000000000E+01
(PID.TID 0000.0001) %MON dynstat_theta_min            =   2.0000000000000E+01
(PID.TID 0000.0001) %MON dynstat_theta_mean           =   2.0000000000000E+01
(PID.TID 0000.0001) %MON dynstat_theta_sd             =   0.0000000000000E+00
(PID.TID 0000.0001) %MON dynstat_theta_del2           =   0.0000000000000E+00
(PID.TID 0000.0001) %MON dynstat_salt_max             =   3.0000000000000E+01
(PID.TID 0000.0001) %MON dynstat_salt_min             =   3.0000000000000E+01
(PID.TID 0000.0001) %MON dynstat_salt_mean            =   3.0000000000000E+01
(PID.TID 0000.0001) %MON dynstat_salt_sd              =   0.0000000000000E+00
(PID.TID 0000.0001) %MON dynstat_salt_del2            =   0.0000000000000E+00
(PID.TID 0000.0001) %MON trAdv_CFL_u_max              =   1.9215287554345E-03
(PID.TID 0000.0001) %MON trAdv_CFL_v_max              =   5.2334312849011E-03
(PID.TID 0000.0001) %MON trAdv_CFL_w_max              =   1.6150645259069E-09
(PID.TID 0000.0001) %MON advcfl_uvel_max              =   1.9215026369429E-03
(PID.TID 0000.0001) %MON advcfl_vvel_max              =   5.2332655348226E-03
(PID.TID 0000.0001) %MON advcfl_wvel_max              =   4.8076492164284E-09
(PID.TID 0000.0001) %MON advcfl_W_hf_max              =   0.0000000000000E+00
(PID.TID 0000.0001) %MON pe_b_mean                    =   2.9330068402804E-07
(PID.TID 0000.0001) %MON ke_max                       =   3.8014150858603E-03
(PID.TID 0000.0001) %MON ke_mean                      =   1.3387654286548E-04
(PID.TID 0000.0001) %MON ke_vol                       =   7.2000000000000E+15
(PID.TID 0000.0001) %MON vort_r_min                   =  -1.5323802123145E-06
(PID.TID 0000.0001) %MON vort_r_max                   =   2.3899769238721E-06
(PID.TID 0000.0001) %MON vort_a_mean                  =   1.0600000000000E-04
(PID.TID 0000.0001) %MON vort_a_sd                    =   3.5373773036930E-06
(PID.TID 0000.0001) %MON vort_p_mean                  =   1.1130000000000E-04
(PID.TID 0000.0001) %MON vort_p_sd                    =   4.1151678869545E-05
(PID.TID 0000.0001) %MON surfExpan_theta_mean         =   3.0232803914664E-21
(PID.TID 0000.0001) %MON surfExpan_salt_mean          =   4.5349995363924E-21
(PID.TID 0000.0001) // =======================================================
(PID.TID 0000.0001) // End MONITOR dynamic field statistics
(PID.TID 0000.0001) // =======================================================
 cg2d: Sum(rhs),rhsMax =  -7.95722743229873E-04  1.44996856216737E-01
 cg2d: Sum(rhs),rhsMax =  -7.96129375934778E-04  1.44991592000120E-01
 cg2d: Sum(rhs),rhsMax =  -7.96535457917144E-04  1.44986321174430E-01
 cg2d: Sum(rhs),rhsMax =  -7.96940992339550E-04  1.44981043753513E-01
 cg2d: Sum(rhs),rhsMax =  -7.97345982475926E-04  1.44975759751228E-01
 cg2d: Sum(rhs),rhsMax =  -7.97750431465602E-04  1.44970469181443E-01
 cg2d: Sum(rhs),rhsMax =  -7.98154342714796E-04  1.44965172058034E-01
 cg2d: Sum(rhs),rhsMax =  -7.98557719641372E-04  1.44959868394890E-01
 cg2d: Sum(rhs),rhsMax =  -7.98960565550399E-04  1.44954558205908E-01
 cg2d: Sum(rhs),rhsMax =  -7.99362884101822E-04  1.44949241504997E-01
 cg2d: Sum(rhs),rhsMax =  -7.99764678867472E-04  1.44943918306076E-01
 cg2d: Sum(rhs),rhsMax =  -8.00165953429644E-04  1.44938588623073E-01
 cg2d: Sum(rhs),rhsMax =  -8.00566711543768E-04  1.44933252469928E-01
 cg2d: Sum(rhs),rhsMax =  -8.00966956965212E-04  1.44927909860590E-01
 cg2d: Sum(rhs),rhsMax =  -8.01366693635724E-04  1.44922560809017E-01
 cg2d: Sum(rhs),rhsMax =  -8.01765925319075E-04  1.44917205329179E-01
 cg2d: Sum(rhs),rhsMax =  -8.02164656234060E-04  1.44911843435055E-01
 cg2d: Sum(rhs),rhsMax =  -8.02562890292040E-04  1.44906475140633E-01
 cg2d: Sum(rhs),rhsMax =  -8.02960631701030E-04  1.44901100459912E-01
 cg2d: Sum(rhs),rhsMax =  -8.03357884676421E-04  1.44895719406900E-01
 cg2d: Sum(rhs),rhsMax =  -8.03754653459033E-04  1.44890331995617E-01
 cg2d: Sum(rhs),rhsMax =  -8.04150942402180E-04  1.44884938240090E-01
 cg2d: Sum(rhs),rhsMax =  -8.04546755951018E-04  1.44879538154356E-01
 cg2d: Sum(rhs),rhsMax =  -8.04942098731096E-04  1.44874131752464E-01
 cg2d: Sum(rhs),rhsMax =  -8.05336975295641E-04  1.44868719048469E-01
 cg2d: Sum(rhs),rhsMax =  -8.05731390272356E-04  1.44863300056440E-01
 cg2d: Sum(rhs),rhsMax =  -8.06125348385608E-04  1.44857874790453E-01
 cg2d: Sum(rhs),rhsMax =  -8.06518854533704E-04  1.44852443264593E-01
 cg2d: Sum(rhs),rhsMax =  -8.06911913615766E-04  1.44847005492955E-01
 cg2d: Sum(rhs),rhsMax =  -8.07304530665200E-04  1.44841561489645E-01
 cg2d: Sum(rhs),rhsMax =  -8.07696710777297E-04  1.44836111268777E-01
 cg2d: Sum(rhs),rhsMax =  -8.08088458983775E-04  1.44830654844474E-01
 cg2d: Sum(rhs),rhsMax =  -8.08479780626471E-04  1.44825192230869E-01
 cg2d: Sum(rhs),rhsMax =  -8.08870681068090E-04  1.44819723442104E-01
 cg2d: Sum(rhs),rhsMax =  -8.09261165712614E-04  1.44814248492332E-01
 cg2d: Sum(rhs),rhsMax =  -8.09651239973870E-04  1.44808767395712E-01
 cg2d: Sum(rhs),rhsMax =  -8.10040909495767E-04  1.44803280166415E-01
 cg2d: Sum(rhs),rhsMax =  -8.10430180039005E-04  1.44797786818621E-01
 cg2d: Sum(rhs),rhsMax =  -8.10819057332823E-04  1.44792287366516E-01
 cg2d: Sum(rhs),rhsMax =  -8.11207547189181E-04  1.44786781824300E-01
 cg2d: Sum(rhs),rhsMax =  -8.11595655751219E-04  1.44781270206177E-01
 cg2d: Sum(rhs),rhsMax =  -8.11983388877116E-04  1.44775752526364E-01
 cg2d: Sum(rhs),rhsMax =  -8.12370752691260E-04  1.44770228799084E-01
 cg2d: Sum(rhs),rhsMax =  -8.12757753539426E-04  1.44764699038572E-01
 cg2d: Sum(rhs),rhsMax =  -8.13144397775125E-04  1.44759163259070E-01
 cg2d: Sum(rhs),rhsMax =  -8.13530691802010E-04  1.44753621474828E-01
 cg2d: Sum(rhs),rhsMax =  -8.13916642016434E-04  1.44748073700107E-01
 cg2d: Sum(rhs),rhsMax =  -8.14302255250108E-04  1.44742519949175E-01
 cg2d: Sum(rhs),rhsMax =  -8.14687538032821E-04  1.44736960236309E-01
 cg2d: Sum(rhs),rhsMax =  -8.15072497358911E-04  1.44731394575798E-01
 cg2d: Sum(rhs),rhsMax =  -8.15457139960975E-04  1.44725822981933E-01
 cg2d: Sum(rhs),rhsMax =  -8.15841472968249E-04  1.44720245469021E-01
 cg2d: Sum(rhs),rhsMax =  -8.16225503526057E-04  1.44714662051371E-01
 cg2d: Sum(rhs),rhsMax =  -8.16727268695911E-04  1.44709072306654E-01
 cg2d: Sum(rhs),rhsMax =  -8.17228623288698E-04  1.44703477079560E-01
 cg2d: Sum(rhs),rhsMax =  -8.17729387901319E-04  1.44697876032245E-01
 cg2d: Sum(rhs),rhsMax =  -8.18229625638722E-04  1.44692269135131E-01
 cg2d: Sum(rhs),rhsMax =  -8.18729348972399E-04  1.44686656402376E-01
 cg2d: Sum(rhs),rhsMax =  -8.19228565181198E-04  1.44681037850473E-01
 cg2d: Sum(rhs),rhsMax =  -8.19727280763208E-04  1.44675413494409E-01
 cg2d: Sum(rhs),rhsMax =  -8.20225502296138E-04  1.44669783348598E-01
 cg2d: Sum(rhs),rhsMax =  -8.20723237037783E-04  1.44664147427332E-01
 cg2d: Sum(rhs),rhsMax =  -8.21220492684413E-04  1.44658505744931E-01
 cg2d: Sum(rhs),rhsMax =  -8.21717277089067E-04  1.44652858315781E-01
 cg2d: Sum(rhs),rhsMax =  -8.22213598287181E-04  1.44647205154311E-01
 cg2d: Sum(rhs),rhsMax =  -8.22709464286979E-04  1.44641546274964E-01
 cg2d: Sum(rhs),rhsMax =  -8.23204883055696E-04  1.44635881692180E-01
 cg2d: Sum(rhs),rhsMax =  -8.23699862824325E-04  1.44630211420397E-01
 cg2d: Sum(rhs),rhsMax =  -8.24194411698582E-04  1.44624535474056E-01
 cg2d: Sum(rhs),rhsMax =  -8.24688538080267E-04  1.44618853867606E-01
 cg2d: Sum(rhs),rhsMax =  -8.25182250471345E-04  1.44613166615505E-01
 cg2d: Sum(rhs),rhsMax =  -8.25675557554187E-04  1.44607473732224E-01
(PID.TID 0000.0001)      cg2d_init_res =   6.54397664320563E-04
(PID.TID 0000.0001)      cg2d_iters(min,last) =      -1      70
(PID.TID 0000.0001)      cg2d_last_res =   9.44999138245735E-08
(PID.TID 0000.0001) // =======================================================
(PID.TID 0000.0001) // Begin MONITOR dynamic field statistics
(PID.TID 0000.0001) // =======================================================
(PID.TID 0000.0001) %MON time_tsnumber                =                 14760
(PID.TID 0000.0001) %MON time_secondsf                =   1.7712000000000E+07
(PID.TID 0000.0001) %MON dynstat_eta_max              =   5.2095668524700E-02
(PID.TID 0000.0001) %MON dynstat_eta_min              =  -1.9464499227745E-02
(PID.TID 0000.0001) %MON dynstat_eta_mean             =   5.9732713562736E-07
(PID.TID 0000.0001) %MON dynstat_eta_sd               =   1.7060167938140E-02
(PID.TID 0000.0001) %MON dynstat_eta_del2             =   1.8005505192713E-05
(PID.TID 0000.0001) %MON dynstat_uvel_max             =   3.1989725207786E-02
(PID.TID 0000.0001) %MON dynstat_uvel_min             =  -1.7303467110848E-02
(PID.TID 0000.0001) %MON dynstat_uvel_mean            =   1.6888153675412E-07
(PID.TID 0000.0001) %MON dynstat_uvel_sd              =   6.3576963725780E-03
(PID.TID 0000.0001) %MON dynstat_uvel_del2            =   7.8994765801024E-06
(PID.TID 0000.0001) %MON dynstat_vvel_max             =   8.7010499651158E-02
(PID.TID 0000.0001) %MON dynstat_vvel_min             =  -3.0203576951883E-02
(PID.TID 0000.0001) %MON dynstat_vvel_mean            =   1.9243378465227E-09
(PID.TID 0000.0001) %MON dynstat_vvel_sd              =   1.5174430369226E-02
(PID.TID 0000.0001) %MON dynstat_vvel_del2            =   7.5715805300713E-05
(PID.TID 0000.0001) %MON dynstat_wvel_max             =   7.0625844927417E-09
(PID.TID 0000.0001) %MON dynstat_wvel_min             =  -9.7396861770540E-09
(PID.TID 0000.0001) %MON dynstat_wvel_mean            =  -3.4978610427869E-21
(PID.TID 0000.0001) %MON dynstat_wvel_sd              =   4.2604883790206E-09
(PID.TID 0000.0001) %MON dynstat_wvel_del2            =   1.3925192603500E-12
(PID.TID 0000.0001) %MON dynstat_theta_max            =   2.0000000000000E+01
(PID.TID 0000.0001) %MON dynstat_theta_min            =   2.0000000000000E+01
(PID.TID 0000.0001) %MON dynstat_theta_mean           =   2.0000000000000E+01
(PID.TID 0000.0001) %MON dynstat_theta_sd             =   0.0000000000000E+00
(PID.TID 0000.0001) %MON dynstat_theta_del2           =   0.0000000000000E+00
(PID.TID 0000.0001) %MON dynstat_salt_max             =   3.0000000000000E+01
(PID.TID 0000.0001) %MON dynstat_salt_min             =   3.0000000000000E+01
(PID.TID 0000.0001) %MON dynstat_salt_mean            =   3.0000000000000E+01
(PID.TID 0000.0001) %MON dynstat_salt_sd              =   0.0000000000000E+00
(PID.TID 0000.0001) %MON dynstat_salt_del2            =   0.0000000000000E+00
(PID.TID 0000.0001) %MON trAdv_CFL_u_max              =   1.9194160668498E-03
(PID.TID 0000.0001) %MON trAdv_CFL_v_max              =   5.2208145498554E-03
(PID.TID 0000.0001) %MON trAdv_CFL_w_max              =   1.6938952145458E-09
(PID.TID 0000.0001) %MON advcfl_uvel_max              =   1.9193835124671E-03
(PID.TID 0000.0001) %MON advcfl_vvel_max              =   5.2206299790695E-03
(PID.TID 0000.0001) %MON advcfl_wvel_max              =   4.6750493649859E-09
(PID.TID 0000.0001) %MON advcfl_W_hf_max              =   0.0000000000000E+00
(PID.TID 0000.0001) %MON pe_b_mean                    =   2.8551939315609E-07
(PID.TID 0000.0001) %MON ke_max                       =   3.7824059499758E-03
(PID.TID 0000.0001) %MON ke_mean                      =   1.3308612311057E-04
(PID.TID 0000.0001) %MON ke_vol                       =   7.2000000000000E+15
(PID.TID 0000.0001) %MON vort_r_min                   =  -1.5336985979666E-06
(PID.TID 0000.0001) %MON vort_r_max                   =   2.3817902238558E-06
(PID.TID 0000.0001) %MON vort_a_mean                  =   1.0600000000000E-04
(PID.TID 0000.0001) %MON vort_a_sd                    =   3.5373479686469E-06
(PID.TID 0000.0001) %MON vort_p_mean                  =   1.1130000000000E-04
(PID.TID 0000.0001) %MON vort_p_sd                    =   4.1151603563223E-05
(PID.TID 0000.0001) %MON surfExpan_theta_mean         =  -6.9958774575854E-20
(PID.TID 0000.0001) %MON surfExpan_salt_mean          =  -1.0493847766055E-19
(PID.TID 0000.0001) // =======================================================
(PID.TID 0000.0001) // End MONITOR dynamic field statistics
(PID.TID 0000.0001) // =======================================================
 cg2d: Sum(rhs),rhsMax =  -8.26168468072607E-04  1.44601775232238E-01
 cg2d: Sum(rhs),rhsMax =  -8.26660990874662E-04  1.44596071130033E-01
 cg2d: Sum(rhs),rhsMax =  -8.27153134837966E-04  1.44590361440099E-01
 cg2d: Sum(rhs),rhsMax =  -8.27644909067852E-04  1.44584646176935E-01
 cg2d: Sum(rhs),rhsMax =  -8.28136322665793E-04  1.44578925355050E-01
 cg2d: Sum(rhs),rhsMax =  -8.28627384968874E-04  1.44573198988955E-01
 cg2d: Sum(rhs),rhsMax =  -8.29118105275718E-04  1.44567467093175E-01
 cg2d: Sum(rhs),rhsMax =  -8.29608493048885E-04  1.44561729682241E-01
 cg2d: Sum(rhs),rhsMax =  -8.30098557861649E-04  1.44555986770689E-01
 cg2d: Sum(rhs),rhsMax =  -8.30588309367128E-04  1.44550238373065E-01
 cg2d: Sum(rhs),rhsMax =  -8.31077757353846E-04  1.44544484503923E-01
 cg2d: Sum(rhs),rhsMax =  -8.31566911685423E-04  1.44538725177822E-01
 cg2d: Sum(rhs),rhsMax =  -8.32055782336848E-04  1.44532960409329E-01
 cg2d: Sum(rhs),rhsMax =  -8.32544379172936E-04  1.44527190213019E-01
 cg2d: Sum(rhs),rhsMax =  -8.33032712436380E-04  1.44521414603474E-01
 cg2d: Sum(rhs),rhsMax =  -8.33657532595997E-04  1.44515633662406E-01
 cg2d: Sum(rhs),rhsMax =  -8.34281594241358E-04  1.44509847255060E-01
 cg2d: Sum(rhs),rhsMax =  -8.34905095522405E-04  1.44504055492779E-01
 cg2d: Sum(rhs),rhsMax =  -8.35527988226408E-04  1.44498258368817E-01
 cg2d: Sum(rhs),rhsMax =  -8.36150287975596E-04  1.44492455903997E-01
 cg2d: Sum(rhs),rhsMax =  -8.36925151653915E-04  1.44486647922018E-01
 cg2d: Sum(rhs),rhsMax =  -8.37699021685271E-04  1.44480834833855E-01
 cg2d: Sum(rhs),rhsMax =  -8.38471774950065E-04  1.44475016437342E-01
 cg2d: Sum(rhs),rhsMax =  -8.39243471898297E-04  1.44469192752330E-01
 cg2d: Sum(rhs),rhsMax =  -8.40014124864993E-04  1.44463363799714E-01
 cg2d: Sum(rhs),rhsMax =  -8.40783742252263E-04  1.44457529595355E-01
 cg2d: Sum(rhs),rhsMax =  -8.41552331485400E-04  1.44451690153869E-01
 cg2d: Sum(rhs),rhsMax =  -8.42319899858472E-04  1.44445845489696E-01
 cg2d: Sum(rhs),rhsMax =  -8.43086455174990E-04  1.44439995617298E-01
 cg2d: Sum(rhs),rhsMax =  -8.43852005801630E-04  1.44434140551222E-01
 cg2d: Sum(rhs),rhsMax =  -8.44616560403803E-04  1.44428280306134E-01
 cg2d: Sum(rhs),rhsMax =  -8.45380127438315E-04  1.44422414896779E-01
 cg2d: Sum(rhs),rhsMax =  -8.46142715030892E-04  1.44416544337924E-01
 cg2d: Sum(rhs),rhsMax =  -8.47056886743491E-04  1.44410668888781E-01
 cg2d: Sum(rhs),rhsMax =  -8.47969464670205E-04  1.44404788099058E-01
 cg2d: Sum(rhs),rhsMax =  -8.48880526722641E-04  1.44398902178120E-01
 cg2d: Sum(rhs),rhsMax =  -8.49790056540995E-04  1.44393011160592E-01
 cg2d: Sum(rhs),rhsMax =  -8.50698058374219E-04  1.44387115067836E-01
 cg2d: Sum(rhs),rhsMax =  -8.51604533570705E-04  1.44381213914971E-01
 cg2d: Sum(rhs),rhsMax =  -8.52509483183464E-04  1.44375307716542E-01
 cg2d: Sum(rhs),rhsMax =  -8.54330255276273E-04  1.44369396553143E-01
 cg2d: Sum(rhs),rhsMax =  -8.56235300306318E-04  1.44363480217848E-01
 cg2d: Sum(rhs),rhsMax =  -8.58131518715790E-04  1.44357558920165E-01
 cg2d: Sum(rhs),rhsMax =  -8.60018908959847E-04  1.44351632634395E-01
 cg2d: Sum(rhs),rhsMax =  -8.61897387238381E-04  1.44345701376910E-01
 cg2d: Sum(rhs),rhsMax =  -8.63766933905344E-04  1.44339765171546E-01
 cg2d: Sum(rhs),rhsMax =  -8.65627550252472E-04  1.44333824030869E-01
 cg2d: Sum(rhs),rhsMax =  -8.67479234631427E-04  1.44327877965922E-01
 cg2d: Sum(rhs),rhsMax =  -8.69321977150976E-04  1.44321926988441E-01
 cg2d: Sum(rhs),rhsMax =  -8.71155762285918E-04  1.44315971111554E-01
 cg2d: Sum(rhs),rhsMax =  -8.72980572621449E-04  1.44310010349691E-01
 cg2d: Sum(rhs),rhsMax =  -8.74796390819096E-04  1.44304044718130E-01
 cg2d: Sum(rhs),rhsMax =  -8.76603200825773E-04  1.44298074232403E-01
 cg2d: Sum(rhs),rhsMax =  -8.78400987539493E-04  1.44292098907851E-01
 cg2d: Sum(rhs),rhsMax =  -8.80189736850572E-04  1.44286118759494E-01
 cg2d: Sum(rhs),rhsMax =  -8.81969434799909E-04  1.44280133802116E-01
 cg2d: Sum(rhs),rhsMax =  -8.83740067306053E-04  1.44274144050428E-01
 cg2d: Sum(rhs),rhsMax =  -8.85501620056831E-04  1.44268149519182E-01
 cg2d: Sum(rhs),rhsMax =  -8.87254078793982E-04  1.44262150223206E-01
 cg2d: Sum(rhs),rhsMax =  -8.88997428952280E-04  1.44256146177382E-01
 cg2d: Sum(rhs),rhsMax =  -8.90731656296537E-04  1.44250137396617E-01
 cg2d: Sum(rhs),rhsMax =  -8.92456746651691E-04  1.44244123895812E-01
 cg2d: Sum(rhs),rhsMax =  -8.94172686351586E-04  1.44238105689857E-01
 cg2d: Sum(rhs),rhsMax =  -8.95879461377826E-04  1.44232082793643E-01
 cg2d: Sum(rhs),rhsMax =  -8.97577057999564E-04  1.44226055222061E-01
 cg2d: Sum(rhs),rhsMax =  -8.99265462623536E-04  1.44220022990019E-01
 cg2d: Sum(rhs),rhsMax =  -9.00944661803699E-04  1.44213986112433E-01
 cg2d: Sum(rhs),rhsMax =  -9.02614642022868E-04  1.44207944604225E-01
 cg2d: Sum(rhs),rhsMax =  -9.04275390141657E-04  1.44201898480325E-01
 cg2d: Sum(rhs),rhsMax =  -9.05926892888629E-04  1.44195847755663E-01
 cg2d: Sum(rhs),rhsMax =  -9.07569137317090E-04  1.44189792445171E-01
 cg2d: Sum(rhs),rhsMax =  -9.09202110602633E-04  1.44183732563783E-01
(PID.TID 0000.0001)      cg2d_init_res =   6.54512751457896E-04
(PID.TID 0000.0001)      cg2d_iters(min,last) =      -1      61
(PID.TID 0000.0001)      cg2d_last_res =   8.74508709832576E-08
(PID.TID 0000.0001) // =======================================================
(PID.TID 0000.0001) // Begin MONITOR dynamic field statistics
(PID.TID 0000.0001) // =======================================================
(PID.TID 0000.0001) %MON time_tsnumber                =                 14832
(PID.TID 0000.0001) %MON time_secondsf                =   1.7798400000000E+07
(PID.TID 0000.0001) %MON dynstat_eta_max              =   5.1918241388246E-02
(PID.TID 0000.0001) %MON dynstat_eta_min              =  -1.9362938124520E-02
(PID.TID 0000.0001) %MON dynstat_eta_mean             =   6.5660369957324E-07
(PID.TID 0000.0001) %MON dynstat_eta_sd               =   1.6832663659870E-02
(PID.TID 0000.0001) %MON dynstat_eta_del2             =   1.8018882722192E-05
(PID.TID 0000.0001) %MON dynstat_uvel_max             =   3.1947069326611E-02
(PID.TID 0000.0001) %MON dynstat_uvel_min             =  -1.7195937680387E-02
(PID.TID 0000.0001) %MON dynstat_uvel_mean            =   1.7156527843882E-07
(PID.TID 0000.0001) %MON dynstat_uvel_sd              =   6.3039037397899E-03
(PID.TID 0000.0001) %MON dynstat_uvel_del2            =   7.8700847776722E-06
(PID.TID 0000.0001) %MON dynstat_vvel_max             =   8.6778833900167E-02
(PID.TID 0000.0001) %MON dynstat_vvel_min             =  -3.0410198531181E-02
(PID.TID 0000.0001) %MON dynstat_vvel_mean            =   1.3313711738627E-09
(PID.TID 0000.0001) %MON dynstat_vvel_sd              =   1.5142686234812E-02
(PID.TID 0000.0001) %MON dynstat_vvel_del2            =   7.5672436186621E-05
(PID.TID 0000.0001) %MON dynstat_wvel_max             =   7.3986551603593E-09
(PID.TID 0000.0001) %MON dynstat_wvel_min             =  -9.4492345832987E-09
(PID.TID 0000.0001) %MON dynstat_wvel_mean            =   1.4536236550258E-21
(PID.TID 0000.0001) %MON dynstat_wvel_sd              =   4.2326744072242E-09
(PID.TID 0000.0001) %MON dynstat_wvel_del2            =   1.3790378705843E-12
(PID.TID 0000.0001) %MON dynstat_theta_max            =   2.0000000000000E+01
(PID.TID 0000.0001) %MON dynstat_theta_min            =   2.0000000000000E+01
(PID.TID 0000.0001) %MON dynstat_theta_mean           =   2.0000000000000E+01
(PID.TID 0000.0001) %MON dynstat_theta_sd             =   0.0000000000000E+00
(PID.TID 0000.0001) %MON dynstat_theta_del2           =   0.0000000000000E+00
(PID.TID 0000.0001) %MON dynstat_salt_max             =   3.0000000000000E+01
(PID.TID 0000.0001) %MON dynstat_salt_min             =   3.0000000000000E+01
(PID.TID 0000.0001) %MON dynstat_salt_mean            =   3.0000000000000E+01
(PID.TID 0000.0001) %MON dynstat_salt_sd              =   0.0000000000000E+00
(PID.TID 0000.0001) %MON dynstat_salt_del2            =   0.0000000000000E+00
(PID.TID 0000.0001) %MON trAdv_CFL_u_max              =   1.9168625056530E-03
(PID.TID 0000.0001) %MON trAdv_CFL_v_max              =   5.2069309163882E-03
(PID.TID 0000.0001) %MON trAdv_CFL_w_max              =   1.7745787388762E-09
(PID.TID 0000.0001) %MON advcfl_uvel_max              =   1.9168241595967E-03
(PID.TID 0000.0001) %MON advcfl_vvel_max              =   5.2067300340100E-03
(PID.TID 0000.0001) %MON advcfl_wvel_max              =   4.5356325999834E-09
(PID.TID 0000.0001) %MON advcfl_W_hf_max              =   0.0000000000000E+00
(PID.TID 0000.0001) %MON pe_b_mean                    =   2.7795513355741E-07
(PID.TID 0000.0001) %MON ke_max                       =   3.7616490098423E-03
(PID.TID 0000.0001) %MON ke_mean                      =   1.3227807315801E-04
(PID.TID 0000.0001) %MON ke_vol                       =   7.2000000000000E+15
(PID.TID 0000.0001) %MON vort_r_min                   =  -1.5347157889641E-06
(PID.TID 0000.0001) %MON vort_r_max                   =   2.3732309266943E-06
(PID.TID 0000.0001) %MON vort_a_mean                  =   1.0600000000000E-04
(PID.TID 0000.0001) %MON vort_a_sd                    =   3.5373119113024E-06
(PID.TID 0000.0001) %MON vort_p_mean                  =   1.1130000000000E-04
(PID.TID 0000.0001) %MON vort_p_sd                    =   4.1151533688270E-05
(PID.TID 0000.0001) %MON surfExpan_theta_mean         =   2.9070671795732E-20
(PID.TID 0000.0001) %MON surfExpan_salt_mean          =   4.3605770846019E-20
(PID.TID 0000.0001) // =======================================================
(PID.TID 0000.0001) // End MONITOR dynamic field statistics
(PID.TID 0000.0001) // =======================================================
 cg2d: Sum(rhs),rhsMax =  -9.10825799994881E-04  1.44177668126441E-01
 cg2d: Sum(rhs),rhsMax =  -9.12492522053328E-04  1.44171599195968E-01
 cg2d: Sum(rhs),rhsMax =  -9.14149488722293E-04  1.44165525664558E-01
 cg2d: Sum(rhs),rhsMax =  -9.15796693317370E-04  1.44159447644137E-01
 cg2d: Sum(rhs),rhsMax =  -9.17434140036931E-04  1.44153365125907E-01
 cg2d: Sum(rhs),rhsMax =  -9.19061812830178E-04  1.44147278125599E-01
 cg2d: Sum(rhs),rhsMax =  -9.20679699694323E-04  1.44141186659818E-01
 cg2d: Sum(rhs),rhsMax =  -9.22287792516291E-04  1.44135090743514E-01
 cg2d: Sum(rhs),rhsMax =  -9.23886084735434E-04  1.44128990391292E-01
 cg2d: Sum(rhs),rhsMax =  -9.25474569532734E-04  1.44122885617854E-01
 cg2d: Sum(rhs),rhsMax =  -9.27053239807464E-04  1.44116776438060E-01
 cg2d: Sum(rhs),rhsMax =  -9.28622087918314E-04  1.44110662866901E-01
 cg2d: Sum(rhs),rhsMax =  -9.30181106453704E-04  1.44104544919443E-01
 cg2d: Sum(rhs),rhsMax =  -9.31730288199959E-04  1.44098422610761E-01
 cg2d: Sum(rhs),rhsMax =  -9.33269626397617E-04  1.44092295955908E-01
 cg2d: Sum(rhs),rhsMax =  -9.34799114806437E-04  1.44086164969905E-01
 cg2d: Sum(rhs),rhsMax =  -9.36318747278839E-04  1.44080029667759E-01
 cg2d: Sum(rhs),rhsMax =  -9.37828517948325E-04  1.44073890064472E-01
 cg2d: Sum(rhs),rhsMax =  -9.39328421291967E-04  1.44067746175063E-01
 cg2d: Sum(rhs),rhsMax =  -9.40818451924566E-04  1.44061598014563E-01
 cg2d: Sum(rhs),rhsMax =  -9.42298604899135E-04  1.44055445598010E-01
 cg2d: Sum(rhs),rhsMax =  -9.43768875391305E-04  1.44049288940452E-01
 cg2d: Sum(rhs),rhsMax =  -9.45229259110292E-04  1.44043128056937E-01
 cg2d: Sum(rhs),rhsMax =  -9.46679752009634E-04  1.44036962962519E-01
 cg2d: Sum(rhs),rhsMax =  -9.48120350447205E-04  1.44030793672250E-01
 cg2d: Sum(rhs),rhsMax =  -9.49551051195466E-04  1.44024620201189E-01
 cg2d: Sum(rhs),rhsMax =  -9.50971851148764E-04  1.44018442564399E-01
 cg2d: Sum(rhs),rhsMax =  -9.52382747930886E-04  1.44012260776944E-01
 cg2d: Sum(rhs),rhsMax =  -9.53783739236823E-04  1.44006074853897E-01
 cg2d: Sum(rhs),rhsMax =  -9.55174823498880E-04  1.43999884810332E-01
 cg2d: Sum(rhs),rhsMax =  -9.56555999426251E-04  1.43993690661327E-01
 cg2d: Sum(rhs),rhsMax =  -9.57927266031456E-04  1.43987492421965E-01
 cg2d: Sum(rhs),rhsMax =  -9.59288623057317E-04  1.43981290107332E-01
 cg2d: Sum(rhs),rhsMax =  -9.60640070482154E-04  1.43975083732520E-01
 cg2d: Sum(rhs),rhsMax =  -9.61981608871718E-04  1.43968873312621E-01
 cg2d: Sum(rhs),rhsMax =  -9.63313239264685E-04  1.43962658862734E-01
 cg2d: Sum(rhs),rhsMax =  -9.64634962973456E-04  1.43956440397960E-01
 cg2d: Sum(rhs),rhsMax =  -9.65946782238927E-04  1.43950217933404E-01
 cg2d: Sum(rhs),rhsMax =  -9.67248699406400E-04  1.43943991484174E-01
 cg2d: Sum(rhs),rhsMax =  -9.68540717448247E-04  1.43937761065384E-01
 cg2d: Sum(rhs),rhsMax =  -9.69822840099478E-04  1.43931526692149E-01
 cg2d: Sum(rhs),rhsMax =  -9.71095071126681E-04  1.43925288379587E-01
 cg2d: Sum(rhs),rhsMax =  -9.72357415244152E-04  1.43919046142822E-01
 cg2d: Sum(rhs),rhsMax =  -9.73609877452451E-04  1.43912799996980E-01
 cg2d: Sum(rhs),rhsMax =  -9.74852463374933E-04  1.43906549957190E-01
 cg2d: Sum(rhs),rhsMax =  -9.76085179159642E-04  1.43900296038585E-01
 cg2d: Sum(rhs),rhsMax =  -9.77308031408106E-04  1.43894038256301E-01
 cg2d: Sum(rhs),rhsMax =  -9.78521027271749E-04  1.43887776625477E-01
 cg2d: Sum(rhs),rhsMax =  -9.79724174281636E-04  1.43881511161257E-01
 cg2d: Sum(rhs),rhsMax =  -9.80917480703183E-04  1.43875241878786E-01
 cg2d: Sum(rhs),rhsMax =  -9.82100955003761E-04  1.43868968793212E-01
 cg2d: Sum(rhs),rhsMax =  -9.83274606190866E-04  1.43862691919689E-01
 cg2d: Sum(rhs),rhsMax =  -9.84438443897711E-04  1.43856411273370E-01
 cg2d: Sum(rhs),rhsMax =  -9.85592477976705E-04  1.43850126869413E-01
 cg2d: Sum(rhs),rhsMax =  -9.86736718680697E-04  1.43843838722982E-01
 cg2d: Sum(rhs),rhsMax =  -9.87871176636662E-04  1.43837546849238E-01
 cg2d: Sum(rhs),rhsMax =  -9.88995863139750E-04  1.43831251263350E-01
 cg2d: Sum(rhs),rhsMax =  -9.90110789295730E-04  1.43824951980486E-01
 cg2d: Sum(rhs),rhsMax =  -9.91215966782355E-04  1.43818649015821E-01
 cg2d: Sum(rhs),rhsMax =  -9.92311407652449E-04  1.43812342384528E-01
 cg2d: Sum(rhs),rhsMax =  -9.93397123849815E-04  1.43806032101788E-01
 cg2d: Sum(rhs),rhsMax =  -9.94473127736336E-04  1.43799718182781E-01
 cg2d: Sum(rhs),rhsMax =  -9.95539431891841E-04  1.43793400642691E-01
 cg2d: Sum(rhs),rhsMax =  -9.96596048935145E-04  1.43787079496704E-01
 cg2d: Sum(rhs),rhsMax =  -9.97642991370493E-04  1.43780754760010E-01
 cg2d: Sum(rhs),rhsMax =  -9.98680271974301E-04  1.43774426447801E-01
 cg2d: Sum(rhs),rhsMax =  -9.99707903411533E-04  1.43768094575271E-01
 cg2d: Sum(rhs),rhsMax =  -1.00072589835740E-03  1.43761759157617E-01
 cg2d: Sum(rhs),rhsMax =  -1.00173426934291E-03  1.43755420210039E-01
 cg2d: Sum(rhs),rhsMax =  -1.00273302878382E-03  1.43749077747739E-01
 cg2d: Sum(rhs),rhsMax =  -1.00372218885179E-03  1.43742731785921E-01
 cg2d: Sum(rhs),rhsMax =  -1.00470176171792E-03  1.43736382339793E-01
(PID.TID 0000.0001)      cg2d_init_res =   6.54656806311137E-04
(PID.TID 0000.0001)      cg2d_iters(min,last) =      -1      60
(PID.TID 0000.0001)      cg2d_last_res =   8.94074014697654E-08
(PID.TID 0000.0001) // =======================================================
(PID.TID 0000.0001) // Begin MONITOR dynamic field statistics
(PID.TID 0000.0001) // =======================================================
(PID.TID 0000.0001) %MON time_tsnumber                =                 14904
(PID.TID 0000.0001) %MON time_secondsf                =   1.7884800000000E+07
(PID.TID 0000.0001) %MON dynstat_eta_max              =   5.1694676002476E-02
(PID.TID 0000.0001) %MON dynstat_eta_min              =  -1.9290741352337E-02
(PID.TID 0000.0001) %MON dynstat_eta_mean             =   7.2272615757593E-07
(PID.TID 0000.0001) %MON dynstat_eta_sd               =   1.6611586694771E-02
(PID.TID 0000.0001) %MON dynstat_eta_del2             =   1.8029248611282E-05
(PID.TID 0000.0001) %MON dynstat_uvel_max             =   3.1897884012534E-02
(PID.TID 0000.0001) %MON dynstat_uvel_min             =  -1.7082007348577E-02
(PID.TID 0000.0001) %MON dynstat_uvel_mean            =   1.7187445680137E-07
(PID.TID 0000.0001) %MON dynstat_uvel_sd              =   6.2559041601136E-03
(PID.TID 0000.0001) %MON dynstat_uvel_del2            =   7.8426642752230E-06
(PID.TID 0000.0001) %MON dynstat_vvel_max             =   8.6529187513395E-02
(PID.TID 0000.0001) %MON dynstat_vvel_min             =  -3.0607856776940E-02
(PID.TID 0000.0001) %MON dynstat_vvel_mean            =   7.3831599882777E-10
(PID.TID 0000.0001) %MON dynstat_vvel_sd              =   1.5107850976917E-02
(PID.TID 0000.0001) %MON dynstat_vvel_del2            =   7.5614171858734E-05
(PID.TID 0000.0001) %MON dynstat_wvel_max             =   7.7313533987763E-09
(PID.TID 0000.0001) %MON dynstat_wvel_min             =  -9.1670524832443E-09
(PID.TID 0000.0001) %MON dynstat_wvel_mean            =   7.1924073886799E-21
(PID.TID 0000.0001) %MON dynstat_wvel_sd              =   4.2018188135574E-09
(PID.TID 0000.0001) %MON dynstat_wvel_del2            =   1.3808457499258E-12
(PID.TID 0000.0001) %MON dynstat_theta_max            =   2.0000000000000E+01
(PID.TID 0000.0001) %MON dynstat_theta_min            =   2.0000000000000E+01
(PID.TID 0000.0001) %MON dynstat_theta_mean           =   2.0000000000000E+01
(PID.TID 0000.0001) %MON dynstat_theta_sd             =   0.0000000000000E+00
(PID.TID 0000.0001) %MON dynstat_theta_del2           =   0.0000000000000E+00
(PID.TID 0000.0001) %MON dynstat_salt_max             =   3.0000000000000E+01
(PID.TID 0000.0001) %MON dynstat_salt_min             =   3.0000000000000E+01
(PID.TID 0000.0001) %MON dynstat_salt_mean            =   3.0000000000000E+01
(PID.TID 0000.0001) %MON dynstat_salt_sd              =   0.0000000000000E+00
(PID.TID 0000.0001) %MON dynstat_salt_del2            =   0.0000000000000E+00
(PID.TID 0000.0001) %MON trAdv_CFL_u_max              =   1.9139164789656E-03
(PID.TID 0000.0001) %MON trAdv_CFL_v_max              =   5.1919658072437E-03
(PID.TID 0000.0001) %MON trAdv_CFL_w_max              =   1.8544655133155E-09
(PID.TID 0000.0001) %MON advcfl_uvel_max              =   1.9138730407521E-03
(PID.TID 0000.0001) %MON advcfl_vvel_max              =   5.1917512508037E-03
(PID.TID 0000.0001) %MON advcfl_wvel_max              =   4.4001851919573E-09
(PID.TID 0000.0001) %MON advcfl_W_hf_max              =   0.0000000000000E+00
(PID.TID 0000.0001) %MON pe_b_mean                    =   2.7070186159247E-07
(PID.TID 0000.0001) %MON ke_max                       =   3.7394293216432E-03
(PID.TID 0000.0001) %MON ke_mean                      =   1.3146355319847E-04
(PID.TID 0000.0001) %MON ke_vol                       =   7.2000000000000E+15
(PID.TID 0000.0001) %MON vort_r_min                   =  -1.5354210060728E-06
(PID.TID 0000.0001) %MON vort_r_max                   =   2.3644028630877E-06
(PID.TID 0000.0001) %MON vort_a_mean                  =   1.0600000000000E-04
(PID.TID 0000.0001) %MON vort_a_sd                    =   3.5372698786978E-06
(PID.TID 0000.0001) %MON vort_p_mean                  =   1.1130000000000E-04
(PID.TID 0000.0001) %MON vort_p_sd                    =   4.1151469673583E-05
(PID.TID 0000.0001) %MON surfExpan_theta_mean         =   1.4384886368488E-19
(PID.TID 0000.0001) %MON surfExpan_salt_mean          =   2.1577311789163E-19
(PID.TID 0000.0001) // =======================================================
(PID.TID 0000.0001) // End MONITOR dynamic field statistics
(PID.TID 0000.0001) // =======================================================
 cg2d: Sum(rhs),rhsMax =  -1.00567175900234E-03  1.43730029424564E-01
 cg2d: Sum(rhs),rhsMax =  -1.00663219228067E-03  1.43723673055445E-01
 cg2d: Sum(rhs),rhsMax =  -1.00758307259892E-03  1.43717313247652E-01
 cg2d: Sum(rhs),rhsMax =  -1.00852441091951E-03  1.43710950016399E-01
 cg2d: Sum(rhs),rhsMax =  -1.00945621749164E-03  1.43704583376907E-01
 cg2d: Sum(rhs),rhsMax =  -1.01037850234334E-03  1.43698213344396E-01
 cg2d: Sum(rhs),rhsMax =  -1.01129127494440E-03  1.43691839934089E-01
 cg2d: Sum(rhs),rhsMax =  -1.01219454430325E-03  1.43685463161212E-01
 cg2d: Sum(rhs),rhsMax =  -1.01308831890912E-03  1.43679083040992E-01
 cg2d: Sum(rhs),rhsMax =  -1.01397260677637E-03  1.43672699588659E-01
 cg2d: Sum(rhs),rhsMax =  -1.01484741540792E-03  1.43666312819444E-01
 cg2d: Sum(rhs),rhsMax =  -1.01571275162267E-03  1.43659922748582E-01
 cg2d: Sum(rhs),rhsMax =  -1.01656862168080E-03  1.43653529391308E-01
 cg2d: Sum(rhs),rhsMax =  -1.01741503139170E-03  1.43647132762861E-01
 cg2d: Sum(rhs),rhsMax =  -1.01825198577941E-03  1.43640732878478E-01
 cg2d: Sum(rhs),rhsMax =  -1.01907948948603E-03  1.43634329753402E-01
 cg2d: Sum(rhs),rhsMax =  -1.01989754644143E-03  1.43627923402878E-01
 cg2d: Sum(rhs),rhsMax =  -1.02070615999053E-03  1.43621513842149E-01
 cg2d: Sum(rhs),rhsMax =  -1.02150533296497E-03  1.43615101086462E-01
 cg2d: Sum(rhs),rhsMax =  -1.02229506744088E-03  1.43608685151068E-01
 cg2d: Sum(rhs),rhsMax =  -1.02307536525617E-03  1.43602266051216E-01
 cg2d: Sum(rhs),rhsMax =  -1.02384622734618E-03  1.43595843802158E-01
 cg2d: Sum(rhs),rhsMax =  -1.02460765431543E-03  1.43589418419148E-01
 cg2d: Sum(rhs),rhsMax =  -1.02535964620834E-03  1.43582989917442E-01
 cg2d: Sum(rhs),rhsMax =  -1.02610220246482E-03  1.43576558312295E-01
 cg2d: Sum(rhs),rhsMax =  -1.02683532213967E-03  1.43570123618968E-01
 cg2d: Sum(rhs),rhsMax =  -1.02755900383654E-03  1.43563685852718E-01
 cg2d: Sum(rhs),rhsMax =  -1.02827324558979E-03  1.43557245028810E-01
 cg2d: Sum(rhs),rhsMax =  -1.02897804518468E-03  1.43550801162503E-01
 cg2d: Sum(rhs),rhsMax =  -1.02967339990867E-03  1.43544354269063E-01
 cg2d: Sum(rhs),rhsMax =  -1.03035930652090E-03  1.43537904363756E-01
 cg2d: Sum(rhs),rhsMax =  -1.03103576175876E-03  1.43531451461846E-01
 cg2d: Sum(rhs),rhsMax =  -1.03170276181304E-03  1.43524995578603E-01
 cg2d: Sum(rhs),rhsMax =  -1.03236030256610E-03  1.43518536729295E-01
 cg2d: Sum(rhs),rhsMax =  -1.03300837982023E-03  1.43512074929193E-01
 cg2d: Sum(rhs),rhsMax =  -1.03364698883722E-03  1.43505610193567E-01
 cg2d: Sum(rhs),rhsMax =  -1.03427612494554E-03  1.43499142537691E-01
 cg2d: Sum(rhs),rhsMax =  -1.03489578299842E-03  1.43492671976835E-01
 cg2d: Sum(rhs),rhsMax =  -1.03550595781738E-03  1.43486198526277E-01
 cg2d: Sum(rhs),rhsMax =  -1.03610664403756E-03  1.43479722201291E-01
 cg2d: Sum(rhs),rhsMax =  -1.03669783630450E-03  1.43473243017151E-01
 cg2d: Sum(rhs),rhsMax =  -1.03727952871459E-03  1.43466760989137E-01
 cg2d: Sum(rhs),rhsMax =  -1.03785171581598E-03  1.43460276132524E-01
 cg2d: Sum(rhs),rhsMax =  -1.03841439171383E-03  1.43453788462592E-01
 cg2d: Sum(rhs),rhsMax =  -1.03896755062716E-03  1.43447297994621E-01
 cg2d: Sum(rhs),rhsMax =  -1.03951118661459E-03  1.43440804743889E-01
 cg2d: Sum(rhs),rhsMax =  -1.04004529382086E-03  1.43434308725677E-01
 cg2d: Sum(rhs),rhsMax =  -1.04056986643442E-03  1.43427809955267E-01
 cg2d: Sum(rhs),rhsMax =  -1.04108489847233E-03  1.43421308447941E-01
 cg2d: Sum(rhs),rhsMax =  -1.04159038412513E-03  1.43414804218980E-01
 cg2d: Sum(rhs),rhsMax =  -1.04208631758076E-03  1.43408297283666E-01
 cg2d: Sum(rhs),rhsMax =  -1.04257269304401E-03  1.43401787657285E-01
 cg2d: Sum(rhs),rhsMax =  -1.04304950492181E-03  1.43395275355118E-01
 cg2d: Sum(rhs),rhsMax =  -1.04351674751697E-03  1.43388760392450E-01
 cg2d: Sum(rhs),rhsMax =  -1.04397441540901E-03  1.43382242784565E-01
 cg2d: Sum(rhs),rhsMax =  -1.04442250306512E-03  1.43375722546747E-01
 cg2d: Sum(rhs),rhsMax =  -1.04486100525065E-03  1.43369199694283E-01
 cg2d: Sum(rhs),rhsMax =  -1.04528991665214E-03  1.43362674242456E-01
 cg2d: Sum(rhs),rhsMax =  -1.04570923235920E-03  1.43356146206551E-01
 cg2d: Sum(rhs),rhsMax =  -1.04611894738729E-03  1.43349615601855E-01
 cg2d: Sum(rhs),rhsMax =  -1.04651905684321E-03  1.43343082443652E-01
 cg2d: Sum(rhs),rhsMax =  -1.04690955617344E-03  1.43336546747227E-01
 cg2d: Sum(rhs),rhsMax =  -1.04729044080064E-03  1.43330008527867E-01
 cg2d: Sum(rhs),rhsMax =  -1.04766170639226E-03  1.43323467800857E-01
 cg2d: Sum(rhs),rhsMax =  -1.04802334877321E-03  1.43316924581482E-01
 cg2d: Sum(rhs),rhsMax =  -1.04837536382192E-03  1.43310378885027E-01
 cg2d: Sum(rhs),rhsMax =  -1.04871774766539E-03  1.43303830726777E-01
 cg2d: Sum(rhs),rhsMax =  -1.04905049664250E-03  1.43297280122019E-01
 cg2d: Sum(rhs),rhsMax =  -1.04937360713705E-03  1.43290727086036E-01
 cg2d: Sum(rhs),rhsMax =  -1.04968707583533E-03  1.43284171634112E-01
 cg2d: Sum(rhs),rhsMax =  -1.04999089946483E-03  1.43277613781533E-01
 cg2d: Sum(rhs),rhsMax =  -1.05028507498584E-03  1.43271053543581E-01
(PID.TID 0000.0001)      cg2d_init_res =   6.54707935983243E-04
(PID.TID 0000.0001)      cg2d_iters(min,last) =      -1      60
(PID.TID 0000.0001)      cg2d_last_res =   9.29301501947006E-08
(PID.TID 0000.0001) // =======================================================
(PID.TID 0000.0001) // Begin MONITOR dynamic field statistics
(PID.TID 0000.0001) // =======================================================
(PID.TID 0000.0001) %MON time_tsnumber                =                 14976
(PID.TID 0000.0001) %MON time_secondsf                =   1.7971200000000E+07
(PID.TID 0000.0001) %MON dynstat_eta_max              =   5.1428500241550E-02
(PID.TID 0000.0001) %MON dynstat_eta_min              =  -1.9248139154143E-02
(PID.TID 0000.0001) %MON dynstat_eta_mean             =   7.5254659433141E-07
(PID.TID 0000.0001) %MON dynstat_eta_sd               =   1.6399923472513E-02
(PID.TID 0000.0001) %MON dynstat_eta_del2             =   1.8036620306880E-05
(PID.TID 0000.0001) %MON dynstat_uvel_max             =   3.1843036559164E-02
(PID.TID 0000.0001) %MON dynstat_uvel_min             =  -1.6963226295748E-02
(PID.TID 0000.0001) %MON dynstat_uvel_mean            =   1.6983502425214E-07
(PID.TID 0000.0001) %MON dynstat_uvel_sd              =   6.2142574483688E-03
(PID.TID 0000.0001) %MON dynstat_uvel_del2            =   7.8174262350769E-06
(PID.TID 0000.0001) %MON dynstat_vvel_max             =   8.6264786521993E-02
(PID.TID 0000.0001) %MON dynstat_vvel_min             =  -3.0794661885787E-02
(PID.TID 0000.0001) %MON dynstat_vvel_mean            =   1.5731842580305E-10
(PID.TID 0000.0001) %MON dynstat_vvel_sd              =   1.5070465515810E-02
(PID.TID 0000.0001) %MON dynstat_vvel_del2            =   7.5542314568006E-05
(PID.TID 0000.0001) %MON dynstat_wvel_max             =   8.0497650798861E-09
(PID.TID 0000.0001) %MON dynstat_wvel_min             =  -8.8697565672919E-09
(PID.TID 0000.0001) %MON dynstat_wvel_mean            =   2.6150817373289E-21
(PID.TID 0000.0001) %MON dynstat_wvel_sd              =   4.1683143808958E-09
(PID.TID 0000.0001) %MON dynstat_wvel_del2            =   1.3781700880506E-12
(PID.TID 0000.0001) %MON dynstat_theta_max            =   2.0000000000000E+01
(PID.TID 0000.0001) %MON dynstat_theta_min            =   2.0000000000000E+01
(PID.TID 0000.0001) %MON dynstat_theta_mean           =   2.0000000000000E+01
(PID.TID 0000.0001) %MON dynstat_theta_sd             =   0.0000000000000E+00
(PID.TID 0000.0001) %MON dynstat_theta_del2           =   0.0000000000000E+00
(PID.TID 0000.0001) %MON dynstat_salt_max             =   3.0000000000000E+01
(PID.TID 0000.0001) %MON dynstat_salt_min             =   3.0000000000000E+01
(PID.TID 0000.0001) %MON dynstat_salt_mean            =   3.0000000000000E+01
(PID.TID 0000.0001) %MON dynstat_salt_sd              =   0.0000000000000E+00
(PID.TID 0000.0001) %MON dynstat_salt_del2            =   0.0000000000000E+00
(PID.TID 0000.0001) %MON trAdv_CFL_u_max              =   1.9106299803126E-03
(PID.TID 0000.0001) %MON trAdv_CFL_v_max              =   5.1761126901460E-03
(PID.TID 0000.0001) %MON trAdv_CFL_w_max              =   1.9309357879625E-09
(PID.TID 0000.0001) %MON advcfl_uvel_max              =   1.9105821935498E-03
(PID.TID 0000.0001) %MON advcfl_vvel_max              =   5.1758871913196E-03
(PID.TID 0000.0001) %MON advcfl_wvel_max              =   4.2574831523001E-09
(PID.TID 0000.0001) %MON advcfl_W_hf_max              =   0.0000000000000E+00
(PID.TID 0000.0001) %MON pe_b_mean                    =   2.6384729815165E-07
(PID.TID 0000.0001) %MON ke_max                       =   3.7160411665923E-03
(PID.TID 0000.0001) %MON ke_mean                      =   1.3065349720895E-04
(PID.TID 0000.0001) %MON ke_vol                       =   7.2000000000000E+15
(PID.TID 0000.0001) %MON vort_r_min                   =  -1.5358137437602E-06
(PID.TID 0000.0001) %MON vort_r_max                   =   2.3554105060670E-06
(PID.TID 0000.0001) %MON vort_a_mean                  =   1.0600000000000E-04
(PID.TID 0000.0001) %MON vort_a_sd                    =   3.5372226725701E-06
(PID.TID 0000.0001) %MON vort_p_mean                  =   1.1130000000000E-04
(PID.TID 0000.0001) %MON vort_p_sd                    =   4.1151411839275E-05
(PID.TID 0000.0001) %MON surfExpan_theta_mean         =   5.2301629693829E-20
(PID.TID 0000.0001) %MON surfExpan_salt_mean          =   7.8452839286708E-20
(PID.TID 0000.0001) // =======================================================
(PID.TID 0000.0001) // End MONITOR dynamic field statistics
(PID.TID 0000.0001) // =======================================================
 cg2d: Sum(rhs),rhsMax =  -1.05056959953300E-03  1.43264490935540E-01
 cg2d: Sum(rhs),rhsMax =  -1.05084447034769E-03  1.43257925972695E-01
 cg2d: Sum(rhs),rhsMax =  -1.05110968495885E-03  1.43251358670327E-01
 cg2d: Sum(rhs),rhsMax =  -1.05136524103595E-03  1.43244789043717E-01
 cg2d: Sum(rhs),rhsMax =  -1.05161113623970E-03  1.43238217108149E-01
 cg2d: Sum(rhs),rhsMax =  -1.05184736874037E-03  1.43231642878903E-01
 cg2d: Sum(rhs),rhsMax =  -1.05207393652749E-03  1.43225066371260E-01
 cg2d: Sum(rhs),rhsMax =  -1.05229083805947E-03  1.43218487600499E-01
 cg2d: Sum(rhs),rhsMax =  -1.05249807179262E-03  1.43211906581900E-01
 cg2d: Sum(rhs),rhsMax =  -1.05269563637190E-03  1.43205323330741E-01
 cg2d: Sum(rhs),rhsMax =  -1.05288353067396E-03  1.43198737862301E-01
 cg2d: Sum(rhs),rhsMax =  -1.05306175361281E-03  1.43192150191855E-01
 cg2d: Sum(rhs),rhsMax =  -1.05323030436070E-03  1.43185560334681E-01
 cg2d: Sum(rhs),rhsMax =  -1.05338918223275E-03  1.43178968306053E-01
 cg2d: Sum(rhs),rhsMax =  -1.05353838673676E-03  1.43172374121245E-01
 cg2d: Sum(rhs),rhsMax =  -1.05367791748909E-03  1.43165777795532E-01
 cg2d: Sum(rhs),rhsMax =  -1.05380777431094E-03  1.43159179344186E-01
 cg2d: Sum(rhs),rhsMax =  -1.05392795710421E-03  1.43152578782479E-01
 cg2d: Sum(rhs),rhsMax =  -1.05403846602267E-03  1.43145976125680E-01
 cg2d: Sum(rhs),rhsMax =  -1.05413930128769E-03  1.43139371389059E-01
 cg2d: Sum(rhs),rhsMax =  -1.05423046336089E-03  1.43132764587884E-01
 cg2d: Sum(rhs),rhsMax =  -1.05431195278206E-03  1.43126155737424E-01
 cg2d: Sum(rhs),rhsMax =  -1.05438377009664E-03  1.43119544852942E-01
 cg2d: Sum(rhs),rhsMax =  -1.05444591632542E-03  1.43112931949705E-01
 cg2d: Sum(rhs),rhsMax =  -1.05449839230285E-03  1.43106317042975E-01
 cg2d: Sum(rhs),rhsMax =  -1.05454119925763E-03  1.43099700148014E-01
 cg2d: Sum(rhs),rhsMax =  -1.05457433844667E-03  1.43093081280085E-01
 cg2d: Sum(rhs),rhsMax =  -1.05459781120620E-03  1.43086460454444E-01
 cg2d: Sum(rhs),rhsMax =  -1.05461161914134E-03  1.43079837686351E-01
 cg2d: Sum(rhs),rhsMax =  -1.05461576385968E-03  1.43073212991062E-01
 cg2d: Sum(rhs),rhsMax =  -1.05461024714945E-03  1.43066586383833E-01
 cg2d: Sum(rhs),rhsMax =  -1.05459507098914E-03  1.43059957879916E-01
 cg2d: Sum(rhs),rhsMax =  -1.05457023737862E-03  1.43053327494563E-01
 cg2d: Sum(rhs),rhsMax =  -1.05453574855751E-03  1.43046695243025E-01
 cg2d: Sum(rhs),rhsMax =  -1.05449160667727E-03  1.43040061140550E-01
 cg2d: Sum(rhs),rhsMax =  -1.05444047961671E-03  1.43033425199979E-01
 cg2d: Sum(rhs),rhsMax =  -1.05437999464934E-03  1.43026787469083E-01
 cg2d: Sum(rhs),rhsMax =  -1.05431012638281E-03  1.43020147906759E-01
 cg2d: Sum(rhs),rhsMax =  -1.05423088022646E-03  1.43013506557542E-01
 cg2d: Sum(rhs),rhsMax =  -1.05414226363655E-03  1.43006863435860E-01
 cg2d: Sum(rhs),rhsMax =  -1.05404428038066E-03  1.43000218554024E-01
 cg2d: Sum(rhs),rhsMax =  -1.05393693409022E-03  1.42993571926815E-01
 cg2d: Sum(rhs),rhsMax =  -1.05382022907035E-03  1.42986923569990E-01
 cg2d: Sum(rhs),rhsMax =  -1.05369416994796E-03  1.42980273499349E-01
 cg2d: Sum(rhs),rhsMax =  -1.05355876124758E-03  1.42973621730410E-01
 cg2d: Sum(rhs),rhsMax =  -1.05341400728189E-03  1.42966968278414E-01
 cg2d: Sum(rhs),rhsMax =  -1.05325991241128E-03  1.42960313158464E-01
 cg2d: Sum(rhs),rhsMax =  -1.05309648141047E-03  1.42953656385646E-01
 cg2d: Sum(rhs),rhsMax =  -1.05292371895667E-03  1.42946997975111E-01
 cg2d: Sum(rhs),rhsMax =  -1.05274163008827E-03  1.42940337942071E-01
 cg2d: Sum(rhs),rhsMax =  -1.05255021982704E-03  1.42933676301777E-01
 cg2d: Sum(rhs),rhsMax =  -1.05234949342164E-03  1.42927013069482E-01
 cg2d: Sum(rhs),rhsMax =  -1.05213945603312E-03  1.42920348260420E-01
 cg2d: Sum(rhs),rhsMax =  -1.05192011313650E-03  1.42913681889806E-01
 cg2d: Sum(rhs),rhsMax =  -1.05169147003345E-03  1.42907013972839E-01
 cg2d: Sum(rhs),rhsMax =  -1.05145353245829E-03  1.42900344524716E-01
 cg2d: Sum(rhs),rhsMax =  -1.05120630602144E-03  1.42893673560631E-01
 cg2d: Sum(rhs),rhsMax =  -1.05094979648245E-03  1.42887001095785E-01
 cg2d: Sum(rhs),rhsMax =  -1.05068400972447E-03  1.42880327145376E-01
 cg2d: Sum(rhs),rhsMax =  -1.05040895178533E-03  1.42873651724601E-01
 cg2d: Sum(rhs),rhsMax =  -1.05012462863532E-03  1.42866974848657E-01
 cg2d: Sum(rhs),rhsMax =  -1.04983104656429E-03  1.42860296532733E-01
 cg2d: Sum(rhs),rhsMax =  -1.04952821177452E-03  1.42853616792019E-01
 cg2d: Sum(rhs),rhsMax =  -1.04921613054337E-03  1.42846935641698E-01
 cg2d: Sum(rhs),rhsMax =  -1.04889480945462E-03  1.42840253096954E-01
 cg2d: Sum(rhs),rhsMax =  -1.04856425498614E-03  1.42833569172964E-01
 cg2d: Sum(rhs),rhsMax =  -1.04822447374679E-03  1.42826883884905E-01
 cg2d: Sum(rhs),rhsMax =  -1.04787547243848E-03  1.42820197247952E-01
 cg2d: Sum(rhs),rhsMax =  -1.04751725781150E-03  1.42813509277275E-01
 cg2d: Sum(rhs),rhsMax =  -1.04714983690488E-03  1.42806819988041E-01
 cg2d: Sum(rhs),rhsMax =  -1.04677321658131E-03  1.42800129395415E-01
 cg2d: Sum(rhs),rhsMax =  -1.04638740385523E-03  1.42793437514559E-01
(PID.TID 0000.0001)      cg2d_init_res =   6.54564026635303E-04
(PID.TID 0000.0001)      cg2d_iters(min,last) =      -1      61
(PID.TID 0000.0001)      cg2d_last_res =   9.33705963719745E-08
(PID.TID 0000.0001) // =======================================================
(PID.TID 0000.0001) // Begin MONITOR dynamic field statistics
(PID.TID 0000.0001) // =======================================================
(PID.TID 0000.0001) %MON time_tsnumber                =                 15048
(PID.TID 0000.0001) %MON time_secondsf                =   1.8057600000000E+07
(PID.TID 0000.0001) %MON dynstat_eta_max              =   5.1123759214762E-02
(PID.TID 0000.0001) %MON dynstat_eta_min              =  -1.9234908389589E-02
(PID.TID 0000.0001) %MON dynstat_eta_mean             =   7.4676925133702E-07
(PID.TID 0000.0001) %MON dynstat_eta_sd               =   1.6200575628049E-02
(PID.TID 0000.0001) %MON dynstat_eta_del2             =   1.8041051587515E-05
(PID.TID 0000.0001) %MON dynstat_uvel_max             =   3.1783440831398E-02
(PID.TID 0000.0001) %MON dynstat_uvel_min             =  -1.6855003320990E-02
(PID.TID 0000.0001) %MON dynstat_uvel_mean            =   1.6550788746440E-07
(PID.TID 0000.0001) %MON dynstat_uvel_sd              =   6.1794414806317E-03
(PID.TID 0000.0001) %MON dynstat_uvel_del2            =   7.7946033017281E-06
(PID.TID 0000.0001) %MON dynstat_vvel_max             =   8.5988947515642E-02
(PID.TID 0000.0001) %MON dynstat_vvel_min             =  -3.0978286938904E-02
(PID.TID 0000.0001) %MON dynstat_vvel_mean            =  -3.9969200844838E-10
(PID.TID 0000.0001) %MON dynstat_vvel_sd              =   1.5031082088118E-02
(PID.TID 0000.0001) %MON dynstat_vvel_del2            =   7.5458299236184E-05
(PID.TID 0000.0001) %MON dynstat_wvel_max             =   8.3636805648348E-09
(PID.TID 0000.0001) %MON dynstat_wvel_min             =  -8.5636718120077E-09
(PID.TID 0000.0001) %MON dynstat_wvel_mean            =   4.6904308387891E-22
(PID.TID 0000.0001) %MON dynstat_wvel_sd              =   4.1326896780142E-09
(PID.TID 0000.0001) %MON dynstat_wvel_del2            =   1.3672833154657E-12
(PID.TID 0000.0001) %MON dynstat_theta_max            =   2.0000000000000E+01
(PID.TID 0000.0001) %MON dynstat_theta_min            =   2.0000000000000E+01
(PID.TID 0000.0001) %MON dynstat_theta_mean           =   2.0000000000000E+01
(PID.TID 0000.0001) %MON dynstat_theta_sd             =   0.0000000000000E+00
(PID.TID 0000.0001) %MON dynstat_theta_del2           =   0.0000000000000E+00
(PID.TID 0000.0001) %MON dynstat_salt_max             =   3.0000000000000E+01
(PID.TID 0000.0001) %MON dynstat_salt_min             =   3.0000000000000E+01
(PID.TID 0000.0001) %MON dynstat_salt_mean            =   3.0000000000000E+01
(PID.TID 0000.0001) %MON dynstat_salt_sd              =   0.0000000000000E+00
(PID.TID 0000.0001) %MON dynstat_salt_del2            =   0.0000000000000E+00
(PID.TID 0000.0001) %MON trAdv_CFL_u_max              =   1.9070578080149E-03
(PID.TID 0000.0001) %MON trAdv_CFL_v_max              =   5.1595705029136E-03
(PID.TID 0000.0001) %MON trAdv_CFL_w_max              =   2.0061200820026E-09
(PID.TID 0000.0001) %MON advcfl_uvel_max              =   1.9070064498839E-03
(PID.TID 0000.0001) %MON advcfl_vvel_max              =   5.1593368509385E-03
(PID.TID 0000.0001) %MON advcfl_wvel_max              =   4.1105624697637E-09
(PID.TID 0000.0001) %MON advcfl_W_hf_max              =   0.0000000000000E+00
(PID.TID 0000.0001) %MON pe_b_mean                    =   2.5747193686428E-07
(PID.TID 0000.0001) %MON ke_max                       =   3.6917836607008E-03
(PID.TID 0000.0001) %MON ke_mean                      =   1.2985847184168E-04
(PID.TID 0000.0001) %MON ke_vol                       =   7.2000000000000E+15
(PID.TID 0000.0001) %MON vort_r_min                   =  -1.5358964189003E-06
(PID.TID 0000.0001) %MON vort_r_max                   =   2.3463576817910E-06
(PID.TID 0000.0001) %MON vort_a_mean                  =   1.0600000000000E-04
(PID.TID 0000.0001) %MON vort_a_sd                    =   3.5371711368210E-06
(PID.TID 0000.0001) %MON vort_p_mean                  =   1.1130000000000E-04
(PID.TID 0000.0001) %MON vort_p_sd                    =   4.1151360395675E-05
(PID.TID 0000.0001) %MON surfExpan_theta_mean         =   9.3807430958906E-21
(PID.TID 0000.0001) %MON surfExpan_salt_mean          =   1.4071114643836E-20
(PID.TID 0000.0001) // =======================================================
(PID.TID 0000.0001) // End MONITOR dynamic field statistics
(PID.TID 0000.0001) // =======================================================
 cg2d: Sum(rhs),rhsMax =  -1.04599240589542E-03  1.42786744360634E-01
 cg2d: Sum(rhs),rhsMax =  -1.04558822997140E-03  1.42780049948793E-01
 cg2d: Sum(rhs),rhsMax =  -1.04517488332291E-03  1.42773354294190E-01
 cg2d: Sum(rhs),rhsMax =  -1.04475237336695E-03  1.42766657411975E-01
 cg2d: Sum(rhs),rhsMax =  -1.04432070750272E-03  1.42759959317293E-01
 cg2d: Sum(rhs),rhsMax =  -1.04387989324727E-03  1.42753260025288E-01
 cg2d: Sum(rhs),rhsMax =  -1.04342993828940E-03  1.42746559551099E-01
 cg2d: Sum(rhs),rhsMax =  -1.04297085021769E-03  1.42739857909863E-01
 cg2d: Sum(rhs),rhsMax =  -1.04250263680676E-03  1.42733155116714E-01
 cg2d: Sum(rhs),rhsMax =  -1.04202530590323E-03  1.42726451186780E-01
 cg2d: Sum(rhs),rhsMax =  -1.04153886541369E-03  1.42719746135188E-01
 cg2d: Sum(rhs),rhsMax =  -1.04104332329135E-03  1.42713039977062E-01
 cg2d: Sum(rhs),rhsMax =  -1.04053868760186E-03  1.42706332727520E-01
 cg2d: Sum(rhs),rhsMax =  -1.04002496649370E-03  1.42699624401679E-01
 cg2d: Sum(rhs),rhsMax =  -1.03950216801472E-03  1.42692915014650E-01
 cg2d: Sum(rhs),rhsMax =  -1.03897030044536E-03  1.42686204581544E-01
 cg2d: Sum(rhs),rhsMax =  -1.03842937221385E-03  1.42679493117463E-01
 cg2d: Sum(rhs),rhsMax =  -1.03787939164053E-03  1.42672780637511E-01
 cg2d: Sum(rhs),rhsMax =  -1.03732036712680E-03  1.42666067156786E-01
 cg2d: Sum(rhs),rhsMax =  -1.03677544463021E-03  1.42659352953861E-01
 cg2d: Sum(rhs),rhsMax =  -1.03622194715663E-03  1.42652637533061E-01
 cg2d: Sum(rhs),rhsMax =  -1.03565984591028E-03  1.42645921137069E-01
 cg2d: Sum(rhs),rhsMax =  -1.03508913943832E-03  1.42639203807645E-01
 cg2d: Sum(rhs),rhsMax =  -1.03450983813992E-03  1.42632485555660E-01
 cg2d: Sum(rhs),rhsMax =  -1.03392195347588E-03  1.42625766392572E-01
 cg2d: Sum(rhs),rhsMax =  -1.03332549819905E-03  1.42619046332650E-01
 cg2d: Sum(rhs),rhsMax =  -1.03272048545787E-03  1.42612325391611E-01
 cg2d: Sum(rhs),rhsMax =  -1.03210692721960E-03  1.42605603585361E-01
 cg2d: Sum(rhs),rhsMax =  -1.03148483436724E-03  1.42598880929434E-01
 cg2d: Sum(rhs),rhsMax =  -1.03085421712460E-03  1.42592157438949E-01
 cg2d: Sum(rhs),rhsMax =  -1.03021508579388E-03  1.42585433128786E-01
 cg2d: Sum(rhs),rhsMax =  -1.02956745085672E-03  1.42578708013791E-01
 cg2d: Sum(rhs),rhsMax =  -1.02891132323510E-03  1.42571982108890E-01
 cg2d: Sum(rhs),rhsMax =  -1.02824671420761E-03  1.42565255429104E-01
 cg2d: Sum(rhs),rhsMax =  -1.02757363503938E-03  1.42558527989507E-01
 cg2d: Sum(rhs),rhsMax =  -1.02689209691703E-03  1.42551799805175E-01
 cg2d: Sum(rhs),rhsMax =  -1.02620211110649E-03  1.42545070891168E-01
 cg2d: Sum(rhs),rhsMax =  -1.02550368882076E-03  1.42538341262510E-01
 cg2d: Sum(rhs),rhsMax =  -1.02479684123577E-03  1.42531610934208E-01
 cg2d: Sum(rhs),rhsMax =  -1.02408157976603E-03  1.42524879921261E-01
 cg2d: Sum(rhs),rhsMax =  -1.02335791581518E-03  1.42518148238668E-01
 cg2d: Sum(rhs),rhsMax =  -1.02262586081661E-03  1.42511415901426E-01
 cg2d: Sum(rhs),rhsMax =  -1.02192417443517E-03  1.42504683136448E-01
 cg2d: Sum(rhs),rhsMax =  -1.02121472257402E-03  1.42497949528787E-01
 cg2d: Sum(rhs),rhsMax =  -1.02049744260321E-03  1.42491215313272E-01
 cg2d: Sum(rhs),rhsMax =  -1.01977233389128E-03  1.42484480509586E-01
 cg2d: Sum(rhs),rhsMax =  -1.01913173109593E-03  1.42477744967009E-01
 cg2d: Sum(rhs),rhsMax =  -1.01848458296879E-03  1.42471008992420E-01
 cg2d: Sum(rhs),rhsMax =  -1.01783078072131E-03  1.42464272484971E-01
 cg2d: Sum(rhs),rhsMax =  -1.01717029083661E-03  1.42457535447157E-01
 cg2d: Sum(rhs),rhsMax =  -1.01650311117759E-03  1.42450797893017E-01
 cg2d: Sum(rhs),rhsMax =  -1.01582925935703E-03  1.42444059832294E-01
 cg2d: Sum(rhs),rhsMax =  -1.01514876216496E-03  1.42437321278013E-01
 cg2d: Sum(rhs),rhsMax =  -1.01446164603634E-03  1.42430582246248E-01
 cg2d: Sum(rhs),rhsMax =  -1.01376793139209E-03  1.42423842753878E-01
 cg2d: Sum(rhs),rhsMax =  -1.01306763329249E-03  1.42417102817065E-01
 cg2d: Sum(rhs),rhsMax =  -1.01236076353986E-03  1.42410362450956E-01
 cg2d: Sum(rhs),rhsMax =  -1.01164733398434E-03  1.42403621670085E-01
 cg2d: Sum(rhs),rhsMax =  -1.01092735749840E-03  1.42396880488887E-01
 cg2d: Sum(rhs),rhsMax =  -1.01020084846019E-03  1.42390138921983E-01
 cg2d: Sum(rhs),rhsMax =  -1.00946782203010E-03  1.42383396984237E-01
 cg2d: Sum(rhs),rhsMax =  -1.00872829363709E-03  1.42376654690647E-01
 cg2d: Sum(rhs),rhsMax =  -1.00798227817527E-03  1.42369912056236E-01
 cg2d: Sum(rhs),rhsMax =  -1.00722979046528E-03  1.42363169095971E-01
 cg2d: Sum(rhs),rhsMax =  -1.00647084488403E-03  1.42356425824758E-01
 cg2d: Sum(rhs),rhsMax =  -1.00570545583534E-03  1.42349682257453E-01
 cg2d: Sum(rhs),rhsMax =  -1.00493363777012E-03  1.42342938408902E-01
 cg2d: Sum(rhs),rhsMax =  -1.00415540514491E-03  1.42336194293956E-01
 cg2d: Sum(rhs),rhsMax =  -1.00342987951278E-03  1.42329449503033E-01
 cg2d: Sum(rhs),rhsMax =  -1.00269858000990E-03  1.42322704894889E-01
 cg2d: Sum(rhs),rhsMax =  -1.00196152409672E-03  1.42315960067464E-01
 cg2d: Sum(rhs),rhsMax =  -1.00121867849990E-03  1.42309215033996E-01
(PID.TID 0000.0001)      cg2d_init_res =   6.54145581321485E-04
(PID.TID 0000.0001)      cg2d_iters(min,last) =      -1      66
(PID.TID 0000.0001)      cg2d_last_res =   9.26437921824974E-08
(PID.TID 0000.0001) // =======================================================
(PID.TID 0000.0001) // Begin MONITOR dynamic field statistics
(PID.TID 0000.0001) // =======================================================
(PID.TID 0000.0001) %MON time_tsnumber                =                 15120
(PID.TID 0000.0001) %MON time_secondsf                =   1.8144000000000E+07
(PID.TID 0000.0001) %MON dynstat_eta_max              =   5.0784918241003E-02
(PID.TID 0000.0001) %MON dynstat_eta_min              =  -1.9250419697727E-02
(PID.TID 0000.0001) %MON dynstat_eta_mean             =   7.1184679112576E-07
(PID.TID 0000.0001) %MON dynstat_eta_sd               =   1.6016307333984E-02
(PID.TID 0000.0001) %MON dynstat_eta_del2             =   1.8042630495899E-05
(PID.TID 0000.0001) %MON dynstat_uvel_max             =   3.1720044178286E-02
(PID.TID 0000.0001) %MON dynstat_uvel_min             =  -1.6754963641616E-02
(PID.TID 0000.0001) %MON dynstat_uvel_mean            =   1.5898471287105E-07
(PID.TID 0000.0001) %MON dynstat_uvel_sd              =   6.1518412505304E-03
(PID.TID 0000.0001) %MON dynstat_uvel_del2            =   7.7744433035167E-06
(PID.TID 0000.0001) %MON dynstat_vvel_max             =   8.5705033940590E-02
(PID.TID 0000.0001) %MON dynstat_vvel_min             =  -3.1160578242483E-02
(PID.TID 0000.0001) %MON dynstat_vvel_mean            =  -9.2116958434663E-10
(PID.TID 0000.0001) %MON dynstat_vvel_sd              =   1.4990257440825E-02
(PID.TID 0000.0001) %MON dynstat_vvel_del2            =   7.5363673987253E-05
(PID.TID 0000.0001) %MON dynstat_wvel_max             =   8.6690809031461E-09
(PID.TID 0000.0001) %MON dynstat_wvel_min             =  -8.2407857515500E-09
(PID.TID 0000.0001) %MON dynstat_wvel_mean            =   6.4337732573626E-22
(PID.TID 0000.0001) %MON dynstat_wvel_sd              =   4.0955857660180E-09
(PID.TID 0000.0001) %MON dynstat_wvel_del2            =   1.3658465616178E-12
(PID.TID 0000.0001) %MON dynstat_theta_max            =   2.0000000000000E+01
(PID.TID 0000.0001) %MON dynstat_theta_min            =   2.0000000000000E+01
(PID.TID 0000.0001) %MON dynstat_theta_mean           =   2.0000000000000E+01
(PID.TID 0000.0001) %MON dynstat_theta_sd             =   0.0000000000000E+00
(PID.TID 0000.0001) %MON dynstat_theta_del2           =   0.0000000000000E+00
(PID.TID 0000.0001) %MON dynstat_salt_max             =   3.0000000000000E+01
(PID.TID 0000.0001) %MON dynstat_salt_min             =   3.0000000000000E+01
(PID.TID 0000.0001) %MON dynstat_salt_mean            =   3.0000000000000E+01
(PID.TID 0000.0001) %MON dynstat_salt_sd              =   0.0000000000000E+00
(PID.TID 0000.0001) %MON dynstat_salt_del2            =   0.0000000000000E+00
(PID.TID 0000.0001) %MON trAdv_CFL_u_max              =   1.9032567805706E-03
(PID.TID 0000.0001) %MON trAdv_CFL_v_max              =   5.1425410314222E-03
(PID.TID 0000.0001) %MON trAdv_CFL_w_max              =   2.0794706813045E-09
(PID.TID 0000.0001) %MON advcfl_uvel_max              =   1.9032026506972E-03
(PID.TID 0000.0001) %MON advcfl_vvel_max              =   5.1423020364354E-03
(PID.TID 0000.0001) %MON advcfl_wvel_max              =   4.1611588335101E-09
(PID.TID 0000.0001) %MON advcfl_W_hf_max              =   0.0000000000000E+00
(PID.TID 0000.0001) %MON pe_b_mean                    =   2.5164818120203E-07
(PID.TID 0000.0001) %MON ke_max                       =   3.6669564525982E-03
(PID.TID 0000.0001) %MON ke_mean                      =   1.2908854306177E-04
(PID.TID 0000.0001) %MON ke_vol                       =   7.2000000000000E+15
(PID.TID 0000.0001) %MON vort_r_min                   =  -1.5356742673795E-06
(PID.TID 0000.0001) %MON vort_r_max                   =   2.3373462637910E-06
(PID.TID 0000.0001) %MON vort_a_mean                  =   1.0600000000000E-04
(PID.TID 0000.0001) %MON vort_a_sd                    =   3.5371161448390E-06
(PID.TID 0000.0001) %MON vort_p_mean                  =   1.1130000000000E-04
(PID.TID 0000.0001) %MON vort_p_sd                    =   4.1151315444170E-05
(PID.TID 0000.0001) %MON surfExpan_theta_mean         =   1.2867297351073E-20
(PID.TID 0000.0001) %MON surfExpan_salt_mean          =   1.9300867077416E-20
(PID.TID 0000.0001) // =======================================================
(PID.TID 0000.0001) // End MONITOR dynamic field statistics
(PID.TID 0000.0001) // =======================================================
 cg2d: Sum(rhs),rhsMax =  -1.00047004391894E-03  1.42302469809565E-01
 cg2d: Sum(rhs),rhsMax =  -9.99715636811086E-04  1.42295724406852E-01
 cg2d: Sum(rhs),rhsMax =  -9.98955480391534E-04  1.42288978839741E-01
 cg2d: Sum(rhs),rhsMax =  -9.98189597192544E-04  1.42282233123646E-01
 cg2d: Sum(rhs),rhsMax =  -9.97418006311371E-04  1.42275487274463E-01
 cg2d: Sum(rhs),rhsMax =  -9.96640723108222E-04  1.42268741307707E-01
 cg2d: Sum(rhs),rhsMax =  -9.95857761169459E-04  1.42261995238321E-01
 cg2d: Sum(rhs),rhsMax =  -9.95069133859877E-04  1.42255249080882E-01
 cg2d: Sum(rhs),rhsMax =  -9.94273379610232E-04  1.42248713956570E-01
 cg2d: Sum(rhs),rhsMax =  -9.93471053126785E-04  1.42242313090918E-01
 cg2d: Sum(rhs),rhsMax =  -9.92663111653007E-04  1.42235911854473E-01
 cg2d: Sum(rhs),rhsMax =  -9.91849570803810E-04  1.42229510261778E-01
 cg2d: Sum(rhs),rhsMax =  -9.91030446026930E-04  1.42223108327385E-01
 cg2d: Sum(rhs),rhsMax =  -9.90205752363301E-04  1.42216706065806E-01
 cg2d: Sum(rhs),rhsMax =  -9.89375504916664E-04  1.42210303491512E-01
 cg2d: Sum(rhs),rhsMax =  -9.88539718583194E-04  1.42203900618946E-01
 cg2d: Sum(rhs),rhsMax =  -9.87698408205845E-04  1.42197497462539E-01
 cg2d: Sum(rhs),rhsMax =  -9.86851588843499E-04  1.42191094036725E-01
 cg2d: Sum(rhs),rhsMax =  -9.86076538703331E-04  1.42184690684840E-01
 cg2d: Sum(rhs),rhsMax =  -9.85296778333414E-04  1.42178286741085E-01
 cg2d: Sum(rhs),rhsMax =  -9.84512242229006E-04  1.42171882591067E-01
 cg2d: Sum(rhs),rhsMax =  -9.83722926541512E-04  1.42165478231903E-01
 cg2d: Sum(rhs),rhsMax =  -9.82928830591524E-04  1.42159073676208E-01
 cg2d: Sum(rhs),rhsMax =  -9.82129971260342E-04  1.42152668936363E-01
 cg2d: Sum(rhs),rhsMax =  -9.81326372250024E-04  1.42146264026003E-01
 cg2d: Sum(rhs),rhsMax =  -9.80518056384884E-04  1.42139858960159E-01
 cg2d: Sum(rhs),rhsMax =  -9.79705043152952E-04  1.42133453754378E-01
 cg2d: Sum(rhs),rhsMax =  -9.78887348135261E-04  1.42127048423795E-01
 cg2d: Sum(rhs),rhsMax =  -9.78064985235144E-04  1.42120642982911E-01
 cg2d: Sum(rhs),rhsMax =  -9.77237968150330E-04  1.42114237445843E-01
 cg2d: Sum(rhs),rhsMax =  -9.76406311180309E-04  1.42107831826649E-01
 cg2d: Sum(rhs),rhsMax =  -9.75570029570098E-04  1.42101426139507E-01
 cg2d: Sum(rhs),rhsMax =  -9.74729138932128E-04  1.42095020398748E-01
 cg2d: Sum(rhs),rhsMax =  -9.73883654936412E-04  1.42088614618787E-01
 cg2d: Sum(rhs),rhsMax =  -9.73033593265775E-04  1.42082208814043E-01
 cg2d: Sum(rhs),rhsMax =  -9.72266952351950E-04  1.42075802528011E-01
 cg2d: Sum(rhs),rhsMax =  -9.71496369147175E-04  1.42069396684820E-01
 cg2d: Sum(rhs),rhsMax =  -9.70721918654701E-04  1.42062990888296E-01
 cg2d: Sum(rhs),rhsMax =  -9.69943566303194E-04  1.42056585126725E-01
 cg2d: Sum(rhs),rhsMax =  -9.69161313438259E-04  1.42050179411854E-01
 cg2d: Sum(rhs),rhsMax =  -9.68375175565340E-04  1.42043773756860E-01
 cg2d: Sum(rhs),rhsMax =  -9.67585172536894E-04  1.42037368175340E-01
 cg2d: Sum(rhs),rhsMax =  -9.66791323609173E-04  1.42030962682167E-01
 cg2d: Sum(rhs),rhsMax =  -9.65993645018543E-04  1.42024557292723E-01
 cg2d: Sum(rhs),rhsMax =  -9.65192150937132E-04  1.42018152022015E-01
 cg2d: Sum(rhs),rhsMax =  -9.64484869936833E-04  1.42011747128987E-01
 cg2d: Sum(rhs),rhsMax =  -9.63774446638458E-04  1.42005342111546E-01
 cg2d: Sum(rhs),rhsMax =  -9.63060789693142E-04  1.41998937281084E-01
 cg2d: Sum(rhs),rhsMax =  -9.62343934946591E-04  1.41992532628445E-01
 cg2d: Sum(rhs),rhsMax =  -9.61623888288543E-04  1.41986128165421E-01
 cg2d: Sum(rhs),rhsMax =  -9.60900663713303E-04  1.41979723904634E-01
 cg2d: Sum(rhs),rhsMax =  -9.60174275538545E-04  1.41973319859956E-01
 cg2d: Sum(rhs),rhsMax =  -9.59444736924994E-04  1.41966916046185E-01
 cg2d: Sum(rhs),rhsMax =  -9.58712060099374E-04  1.41960512478617E-01
 cg2d: Sum(rhs),rhsMax =  -9.57976256587963E-04  1.41954109172159E-01
 cg2d: Sum(rhs),rhsMax =  -9.57237337587943E-04  1.41947706141109E-01
 cg2d: Sum(rhs),rhsMax =  -9.56495314383115E-04  1.41941303399395E-01
 cg2d: Sum(rhs),rhsMax =  -9.55750198279348E-04  1.41934900960889E-01
 cg2d: Sum(rhs),rhsMax =  -9.55002000787551E-04  1.41928498839593E-01
 cg2d: Sum(rhs),rhsMax =  -9.54250733252973E-04  1.41922097049661E-01
 cg2d: Sum(rhs),rhsMax =  -9.53496406898214E-04  1.41915695605324E-01
 cg2d: Sum(rhs),rhsMax =  -9.52820855941942E-04  1.41909294424043E-01
 cg2d: Sum(rhs),rhsMax =  -9.52142536346474E-04  1.41902893692682E-01
 cg2d: Sum(rhs),rhsMax =  -9.51461565526093E-04  1.41896493368742E-01
 cg2d: Sum(rhs),rhsMax =  -9.50777925775826E-04  1.41890093449329E-01
 cg2d: Sum(rhs),rhsMax =  -9.50091628048801E-04  1.41883693945953E-01
 cg2d: Sum(rhs),rhsMax =  -9.49402683028108E-04  1.41877294872142E-01
 cg2d: Sum(rhs),rhsMax =  -9.48711099218222E-04  1.41870896241590E-01
 cg2d: Sum(rhs),rhsMax =  -9.48016884172406E-04  1.41864498068781E-01
 cg2d: Sum(rhs),rhsMax =  -9.47320045913197E-04  1.41858100368558E-01
 cg2d: Sum(rhs),rhsMax =  -9.46620593395998E-04  1.41851703155528E-01
 cg2d: Sum(rhs),rhsMax =  -9.45918536114895E-04  1.41845306443872E-01
(PID.TID 0000.0001)      cg2d_init_res =   6.53293571522832E-04
(PID.TID 0000.0001)      cg2d_iters(min,last) =      -1      70
(PID.TID 0000.0001)      cg2d_last_res =   8.42067064973435E-08
(PID.TID 0000.0001) // =======================================================
(PID.TID 0000.0001) // Begin MONITOR dynamic field statistics
(PID.TID 0000.0001) // =======================================================
(PID.TID 0000.0001) %MON time_tsnumber                =                 15192
(PID.TID 0000.0001) %MON time_secondsf                =   1.8230400000000E+07
(PID.TID 0000.0001) %MON dynstat_eta_max              =   5.0416809432814E-02
(PID.TID 0000.0001) %MON dynstat_eta_min              =  -1.9293641574387E-02
(PID.TID 0000.0001) %MON dynstat_eta_mean             =   6.7034053601273E-07
(PID.TID 0000.0001) %MON dynstat_eta_sd               =   1.5849689367601E-02
(PID.TID 0000.0001) %MON dynstat_eta_del2             =   1.8041476880361E-05
(PID.TID 0000.0001) %MON dynstat_uvel_max             =   3.1653814296150E-02
(PID.TID 0000.0001) %MON dynstat_uvel_min             =  -1.6653901792426E-02
(PID.TID 0000.0001) %MON dynstat_uvel_mean            =   1.5038355752179E-07
(PID.TID 0000.0001) %MON dynstat_uvel_sd              =   6.1317386781896E-03
(PID.TID 0000.0001) %MON dynstat_uvel_del2            =   7.7572000094489E-06
(PID.TID 0000.0001) %MON dynstat_vvel_max             =   8.5416412342509E-02
(PID.TID 0000.0001) %MON dynstat_vvel_min             =  -3.1330271700537E-02
(PID.TID 0000.0001) %MON dynstat_vvel_mean            =  -1.3962157922296E-09
(PID.TID 0000.0001) %MON dynstat_vvel_sd              =   1.4948546338951E-02
(PID.TID 0000.0001) %MON dynstat_vvel_del2            =   7.5260079577525E-05
(PID.TID 0000.0001) %MON dynstat_wvel_max             =   8.9676448591308E-09
(PID.TID 0000.0001) %MON dynstat_wvel_min             =  -7.8962975306786E-09
(PID.TID 0000.0001) %MON dynstat_wvel_mean            =  -5.2029498773562E-21
(PID.TID 0000.0001) %MON dynstat_wvel_sd              =   4.0577262759336E-09
(PID.TID 0000.0001) %MON dynstat_wvel_del2            =   1.3712082136759E-12
(PID.TID 0000.0001) %MON dynstat_theta_max            =   2.0000000000000E+01
(PID.TID 0000.0001) %MON dynstat_theta_min            =   2.0000000000000E+01
(PID.TID 0000.0001) %MON dynstat_theta_mean           =   2.0000000000000E+01
(PID.TID 0000.0001) %MON dynstat_theta_sd             =   0.0000000000000E+00
(PID.TID 0000.0001) %MON dynstat_theta_del2           =   0.0000000000000E+00
(PID.TID 0000.0001) %MON dynstat_salt_max             =   3.0000000000000E+01
(PID.TID 0000.0001) %MON dynstat_salt_min             =   3.0000000000000E+01
(PID.TID 0000.0001) %MON dynstat_salt_mean            =   3.0000000000000E+01
(PID.TID 0000.0001) %MON dynstat_salt_sd              =   0.0000000000000E+00
(PID.TID 0000.0001) %MON dynstat_salt_del2            =   0.0000000000000E+00
(PID.TID 0000.0001) %MON trAdv_CFL_u_max              =   1.8992849484480E-03
(PID.TID 0000.0001) %MON trAdv_CFL_v_max              =   5.1252262834182E-03
(PID.TID 0000.0001) %MON trAdv_CFL_w_max              =   2.1511959461641E-09
(PID.TID 0000.0001) %MON advcfl_uvel_max              =   1.8992288577690E-03
(PID.TID 0000.0001) %MON advcfl_vvel_max              =   5.1249847405505E-03
(PID.TID 0000.0001) %MON advcfl_wvel_max              =   4.3044695323828E-09
(PID.TID 0000.0001) %MON advcfl_W_hf_max              =   0.0000000000000E+00
(PID.TID 0000.0001) %MON pe_b_mean                    =   2.4643961308234E-07
(PID.TID 0000.0001) %MON ke_max                       =   3.6427563217238E-03
(PID.TID 0000.0001) %MON ke_mean                      =   1.2835315130326E-04
(PID.TID 0000.0001) %MON ke_vol                       =   7.2000000000000E+15
(PID.TID 0000.0001) %MON vort_r_min                   =  -1.5351552286420E-06
(PID.TID 0000.0001) %MON vort_r_max                   =   2.3284748811030E-06
(PID.TID 0000.0001) %MON vort_a_mean                  =   1.0600000000000E-04
(PID.TID 0000.0001) %MON vort_a_sd                    =   3.5370585866887E-06
(PID.TID 0000.0001) %MON vort_p_mean                  =   1.1130000000000E-04
(PID.TID 0000.0001) %MON vort_p_sd                    =   4.1151276979219E-05
(PID.TID 0000.0001) %MON surfExpan_theta_mean         =  -1.0405898365207E-19
(PID.TID 0000.0001) %MON surfExpan_salt_mean          =  -1.5608863337649E-19
(PID.TID 0000.0001) // =======================================================
(PID.TID 0000.0001) // End MONITOR dynamic field statistics
(PID.TID 0000.0001) // =======================================================
 cg2d: Sum(rhs),rhsMax =  -9.45213883610265E-04  1.41838910247488E-01
 cg2d: Sum(rhs),rhsMax =  -9.44506645310495E-04  1.41832514580222E-01
 cg2d: Sum(rhs),rhsMax =  -9.43796830154752E-04  1.41826119455996E-01
 cg2d: Sum(rhs),rhsMax =  -9.43084446990958E-04  1.41819724888839E-01
 cg2d: Sum(rhs),rhsMax =  -9.42369504567562E-04  1.41813330892832E-01
 cg2d: Sum(rhs),rhsMax =  -9.41652011591375E-04  1.41806937482062E-01
 cg2d: Sum(rhs),rhsMax =  -9.40931976763887E-04  1.41800544670583E-01
 cg2d: Sum(rhs),rhsMax =  -9.40209408758118E-04  1.41794152472415E-01
 cg2d: Sum(rhs),rhsMax =  -9.39484316353987E-04  1.41787760901556E-01
 cg2d: Sum(rhs),rhsMax =  -9.38756708134773E-04  1.41781369971989E-01
 cg2d: Sum(rhs),rhsMax =  -9.38026592674183E-04  1.41774979697695E-01
 cg2d: Sum(rhs),rhsMax =  -9.37293978402791E-04  1.41768590092655E-01
 cg2d: Sum(rhs),rhsMax =  -9.36558873766632E-04  1.41762201170845E-01
 cg2d: Sum(rhs),rhsMax =  -9.35821287204978E-04  1.41755812946234E-01
 cg2d: Sum(rhs),rhsMax =  -9.35081226974223E-04  1.41749425432782E-01
 cg2d: Sum(rhs),rhsMax =  -9.34338701466558E-04  1.41743038644440E-01
 cg2d: Sum(rhs),rhsMax =  -9.33593718860585E-04  1.41736652595147E-01
 cg2d: Sum(rhs),rhsMax =  -9.32846287409392E-04  1.41730267298836E-01
 cg2d: Sum(rhs),rhsMax =  -9.32096415285427E-04  1.41723882769431E-01
 cg2d: Sum(rhs),rhsMax =  -9.31344110506122E-04  1.41717499020848E-01
 cg2d: Sum(rhs),rhsMax =  -9.30589381198321E-04  1.41711116066992E-01
 cg2d: Sum(rhs),rhsMax =  -9.29832235378260E-04  1.41704733921765E-01
 cg2d: Sum(rhs),rhsMax =  -9.29072681039773E-04  1.41698352599057E-01
 cg2d: Sum(rhs),rhsMax =  -9.28310726127483E-04  1.41691972112750E-01
 cg2d: Sum(rhs),rhsMax =  -9.27546378413229E-04  1.41685592476717E-01
 cg2d: Sum(rhs),rhsMax =  -9.26779645850038E-04  1.41679213704824E-01
 cg2d: Sum(rhs),rhsMax =  -9.26010536251431E-04  1.41672835810927E-01
 cg2d: Sum(rhs),rhsMax =  -9.25239057332320E-04  1.41666458808874E-01
 cg2d: Sum(rhs),rhsMax =  -9.24465216834878E-04  1.41660082712503E-01
 cg2d: Sum(rhs),rhsMax =  -9.23689022357736E-04  1.41653707535645E-01
 cg2d: Sum(rhs),rhsMax =  -9.22910481650542E-04  1.41647333292123E-01
 cg2d: Sum(rhs),rhsMax =  -9.22129602294088E-04  1.41640959995747E-01
 cg2d: Sum(rhs),rhsMax =  -9.21346391774464E-04  1.41634587660324E-01
 cg2d: Sum(rhs),rhsMax =  -9.20560857638483E-04  1.41628216299647E-01
 cg2d: Sum(rhs),rhsMax =  -9.19773007426534E-04  1.41621845927503E-01
 cg2d: Sum(rhs),rhsMax =  -9.18982848506033E-04  1.41615476557669E-01
 cg2d: Sum(rhs),rhsMax =  -9.18190388318560E-04  1.41609108203915E-01
 cg2d: Sum(rhs),rhsMax =  -9.17395634223652E-04  1.41602740879999E-01
 cg2d: Sum(rhs),rhsMax =  -9.16598593569231E-04  1.41596374599672E-01
 cg2d: Sum(rhs),rhsMax =  -9.15799273575205E-04  1.41590009376676E-01
 cg2d: Sum(rhs),rhsMax =  -9.14997681641880E-04  1.41583645224742E-01
 cg2d: Sum(rhs),rhsMax =  -9.14193824838793E-04  1.41577282157595E-01
 cg2d: Sum(rhs),rhsMax =  -9.13387710489588E-04  1.41570920188948E-01
 cg2d: Sum(rhs),rhsMax =  -9.12579345584759E-04  1.41564559332507E-01
 cg2d: Sum(rhs),rhsMax =  -9.11768737364226E-04  1.41558199601967E-01
 cg2d: Sum(rhs),rhsMax =  -9.10955892965305E-04  1.41551841011015E-01
 cg2d: Sum(rhs),rhsMax =  -9.10140819306791E-04  1.41545483573329E-01
 cg2d: Sum(rhs),rhsMax =  -9.09323523486886E-04  1.41539127302576E-01
 cg2d: Sum(rhs),rhsMax =  -9.08504012408854E-04  1.41532772212415E-01
 cg2d: Sum(rhs),rhsMax =  -9.07682293064814E-04  1.41526418316496E-01
 cg2d: Sum(rhs),rhsMax =  -9.06858372366883E-04  1.41520065628459E-01
 cg2d: Sum(rhs),rhsMax =  -9.06032257164943E-04  1.41513714161934E-01
 cg2d: Sum(rhs),rhsMax =  -9.05203954417300E-04  1.41507363930543E-01
 cg2d: Sum(rhs),rhsMax =  -9.04373470865431E-04  1.41501014947897E-01
 cg2d: Sum(rhs),rhsMax =  -9.03540813370137E-04  1.41494667227599E-01
 cg2d: Sum(rhs),rhsMax =  -9.02705988575133E-04  1.41488320783241E-01
 cg2d: Sum(rhs),rhsMax =  -9.01869003366247E-04  1.41481975628406E-01
 cg2d: Sum(rhs),rhsMax =  -9.01029864392006E-04  1.41475631776667E-01
 cg2d: Sum(rhs),rhsMax =  -9.00188578313216E-04  1.41469289241590E-01
 cg2d: Sum(rhs),rhsMax =  -8.99345151751545E-04  1.41462948036727E-01
 cg2d: Sum(rhs),rhsMax =  -8.98499591352416E-04  1.41456608175624E-01
 cg2d: Sum(rhs),rhsMax =  -8.97651903726543E-04  1.41450269671815E-01
 cg2d: Sum(rhs),rhsMax =  -8.96802095413800E-04  1.41443932538825E-01
 cg2d: Sum(rhs),rhsMax =  -8.95950172963821E-04  1.41437596790169E-01
 cg2d: Sum(rhs),rhsMax =  -8.95096142814150E-04  1.41431262439353E-01
 cg2d: Sum(rhs),rhsMax =  -8.94240011494332E-04  1.41424929499873E-01
 cg2d: Sum(rhs),rhsMax =  -8.93381785536130E-04  1.41418597985213E-01
 cg2d: Sum(rhs),rhsMax =  -8.92521471268395E-04  1.41412267908851E-01
 cg2d: Sum(rhs),rhsMax =  -8.91659075104429E-04  1.41405939284251E-01
 cg2d: Sum(rhs),rhsMax =  -8.90794603521539E-04  1.41399612124869E-01
 cg2d: Sum(rhs),rhsMax =  -8.89928062751823E-04  1.41393286444151E-01
 cg2d: Sum(rhs),rhsMax =  -8.89059459255060E-04  1.41386962255534E-01
(PID.TID 0000.0001)      cg2d_init_res =   6.52063100701922E-04
(PID.TID 0000.0001)      cg2d_iters(min,last) =      -1      70
(PID.TID 0000.0001)      cg2d_last_res =   9.88206215550616E-08
(PID.TID 0000.0001) // =======================================================
(PID.TID 0000.0001) // Begin MONITOR dynamic field statistics
(PID.TID 0000.0001) // =======================================================
(PID.TID 0000.0001) %MON time_tsnumber                =                 15264
(PID.TID 0000.0001) %MON time_secondsf                =   1.8316800000000E+07
(PID.TID 0000.0001) %MON dynstat_eta_max              =   5.0024531709902E-02
(PID.TID 0000.0001) %MON dynstat_eta_min              =  -1.9363192563991E-02
(PID.TID 0000.0001) %MON dynstat_eta_mean             =   6.2786350244144E-07
(PID.TID 0000.0001) %MON dynstat_eta_sd               =   1.5703041835681E-02
(PID.TID 0000.0001) %MON dynstat_eta_del2             =   1.8037739634485E-05
(PID.TID 0000.0001) %MON dynstat_uvel_max             =   3.1585725006819E-02
(PID.TID 0000.0001) %MON dynstat_uvel_min             =  -1.6553068065628E-02
(PID.TID 0000.0001) %MON dynstat_uvel_mean            =   1.3984960633971E-07
(PID.TID 0000.0001) %MON dynstat_uvel_sd              =   6.1193038755357E-03
(PID.TID 0000.0001) %MON dynstat_uvel_del2            =   7.7431213863904E-06
(PID.TID 0000.0001) %MON dynstat_vvel_max             =   8.5126410029040E-02
(PID.TID 0000.0001) %MON dynstat_vvel_min             =  -3.1485945774377E-02
(PID.TID 0000.0001) %MON dynstat_vvel_mean            =  -1.8148481429101E-09
(PID.TID 0000.0001) %MON dynstat_vvel_sd              =   1.4906495377174E-02
(PID.TID 0000.0001) %MON dynstat_vvel_del2            =   7.5149227897206E-05
(PID.TID 0000.0001) %MON dynstat_wvel_max             =   9.2332690897865E-09
(PID.TID 0000.0001) %MON dynstat_wvel_min             =  -7.5283380009932E-09
(PID.TID 0000.0001) %MON dynstat_wvel_mean            =   3.6185479580632E-21
(PID.TID 0000.0001) %MON dynstat_wvel_sd              =   4.0198866481261E-09
(PID.TID 0000.0001) %MON dynstat_wvel_del2            =   1.3726416155001E-12
(PID.TID 0000.0001) %MON dynstat_theta_max            =   2.0000000000000E+01
(PID.TID 0000.0001) %MON dynstat_theta_min            =   2.0000000000000E+01
(PID.TID 0000.0001) %MON dynstat_theta_mean           =   2.0000000000000E+01
(PID.TID 0000.0001) %MON dynstat_theta_sd             =   0.0000000000000E+00
(PID.TID 0000.0001) %MON dynstat_theta_del2           =   0.0000000000000E+00
(PID.TID 0000.0001) %MON dynstat_salt_max             =   3.0000000000000E+01
(PID.TID 0000.0001) %MON dynstat_salt_min             =   3.0000000000000E+01
(PID.TID 0000.0001) %MON dynstat_salt_mean            =   3.0000000000000E+01
(PID.TID 0000.0001) %MON dynstat_salt_sd              =   0.0000000000000E+00
(PID.TID 0000.0001) %MON dynstat_salt_del2            =   0.0000000000000E+00
(PID.TID 0000.0001) %MON trAdv_CFL_u_max              =   1.8952007414132E-03
(PID.TID 0000.0001) %MON trAdv_CFL_v_max              =   5.1078259473584E-03
(PID.TID 0000.0001) %MON trAdv_CFL_w_max              =   2.2151192989397E-09
(PID.TID 0000.0001) %MON advcfl_uvel_max              =   1.8951435004091E-03
(PID.TID 0000.0001) %MON advcfl_vvel_max              =   5.1075846017424E-03
(PID.TID 0000.0001) %MON advcfl_wvel_max              =   4.4319691630975E-09
(PID.TID 0000.0001) %MON advcfl_W_hf_max              =   0.0000000000000E+00
(PID.TID 0000.0001) %MON pe_b_mean                    =   2.4190039834492E-07
(PID.TID 0000.0001) %MON ke_max                       =   3.6186444197911E-03
(PID.TID 0000.0001) %MON ke_mean                      =   1.2766099648212E-04
(PID.TID 0000.0001) %MON ke_vol                       =   7.2000000000000E+15
(PID.TID 0000.0001) %MON vort_r_min                   =  -1.5343497915476E-06
(PID.TID 0000.0001) %MON vort_r_max                   =   2.3198377514289E-06
(PID.TID 0000.0001) %MON vort_a_mean                  =   1.0600000000000E-04
(PID.TID 0000.0001) %MON vort_a_sd                    =   3.5369993564064E-06
(PID.TID 0000.0001) %MON vort_p_mean                  =   1.1130000000000E-04
(PID.TID 0000.0001) %MON vort_p_sd                    =   4.1151244892011E-05
(PID.TID 0000.0001) %MON surfExpan_theta_mean         =   7.2370829082599E-20
(PID.TID 0000.0001) %MON surfExpan_salt_mean          =   1.0855620476609E-19
(PID.TID 0000.0001) // =======================================================
(PID.TID 0000.0001) // End MONITOR dynamic field statistics
(PID.TID 0000.0001) // =======================================================
 cg2d: Sum(rhs),rhsMax =  -8.88188799193028E-04  1.41380639572441E-01
 cg2d: Sum(rhs),rhsMax =  -8.87316088912419E-04  1.41374318408292E-01
 cg2d: Sum(rhs),rhsMax =  -8.86441334624502E-04  1.41367998776488E-01
 cg2d: Sum(rhs),rhsMax =  -8.85564542699765E-04  1.41361680690425E-01
 cg2d: Sum(rhs),rhsMax =  -8.84685719197772E-04  1.41355364163491E-01
 cg2d: Sum(rhs),rhsMax =  -8.83804870294657E-04  1.41349049209059E-01
 cg2d: Sum(rhs),rhsMax =  -8.82922002235246E-04  1.41342735840494E-01
 cg2d: Sum(rhs),rhsMax =  -8.82124440153654E-04  1.41336424150514E-01
 cg2d: Sum(rhs),rhsMax =  -8.81325151610932E-04  1.41330113997641E-01
 cg2d: Sum(rhs),rhsMax =  -8.80524043014547E-04  1.41323805468376E-01
 cg2d: Sum(rhs),rhsMax =  -8.79721178173817E-04  1.41317498576564E-01
 cg2d: Sum(rhs),rhsMax =  -8.78916568971147E-04  1.41311193337399E-01
 cg2d: Sum(rhs),rhsMax =  -8.78110222330966E-04  1.41304889763449E-01
 cg2d: Sum(rhs),rhsMax =  -8.77302140003804E-04  1.41298587867880E-01
 cg2d: Sum(rhs),rhsMax =  -8.76492323395632E-04  1.41292287664131E-01
 cg2d: Sum(rhs),rhsMax =  -8.75680775473548E-04  1.41285989165913E-01
 cg2d: Sum(rhs),rhsMax =  -8.74867501524078E-04  1.41279692386816E-01
 cg2d: Sum(rhs),rhsMax =  -8.74052508134488E-04  1.41273397340168E-01
 cg2d: Sum(rhs),rhsMax =  -8.73235802040959E-04  1.41267104039104E-01
 cg2d: Sum(rhs),rhsMax =  -8.72417389402966E-04  1.41260812496711E-01
 cg2d: Sum(rhs),rhsMax =  -8.71597275941300E-04  1.41254522726121E-01
 cg2d: Sum(rhs),rhsMax =  -8.70775466954029E-04  1.41248234740527E-01
 cg2d: Sum(rhs),rhsMax =  -8.69951967491207E-04  1.41241948553156E-01
 cg2d: Sum(rhs),rhsMax =  -8.69126782993886E-04  1.41235664177229E-01
 cg2d: Sum(rhs),rhsMax =  -8.68299918793334E-04  1.41229381625942E-01
 cg2d: Sum(rhs),rhsMax =  -8.67471380431759E-04  1.41223100912464E-01
 cg2d: Sum(rhs),rhsMax =  -8.66641173388301E-04  1.41216822049939E-01
 cg2d: Sum(rhs),rhsMax =  -8.65809303175235E-04  1.41210545051503E-01
 cg2d: Sum(rhs),rhsMax =  -8.64975775178088E-04  1.41204269930280E-01
 cg2d: Sum(rhs),rhsMax =  -8.64140594705105E-04  1.41197996699390E-01
 cg2d: Sum(rhs),rhsMax =  -8.63303767281387E-04  1.41191725371943E-01
 cg2d: Sum(rhs),rhsMax =  -8.62465298130063E-04  1.41185455961040E-01
 cg2d: Sum(rhs),rhsMax =  -8.61625192567210E-04  1.41179188479769E-01
 cg2d: Sum(rhs),rhsMax =  -8.60783455903330E-04  1.41172922941208E-01
 cg2d: Sum(rhs),rhsMax =  -8.59940093575650E-04  1.41166659358421E-01
 cg2d: Sum(rhs),rhsMax =  -8.59095110867195E-04  1.41160397744462E-01
 cg2d: Sum(rhs),rhsMax =  -8.58248512985258E-04  1.41154138112372E-01
 cg2d: Sum(rhs),rhsMax =  -8.57400305210156E-04  1.41147880475184E-01
 cg2d: Sum(rhs),rhsMax =  -8.56550492858385E-04  1.41141624845918E-01
 cg2d: Sum(rhs),rhsMax =  -8.55699081103406E-04  1.41135371237584E-01
 cg2d: Sum(rhs),rhsMax =  -8.54846075168936E-04  1.41129119663178E-01
 cg2d: Sum(rhs),rhsMax =  -8.53991480400271E-04  1.41122870135688E-01
 cg2d: Sum(rhs),rhsMax =  -8.53135301867665E-04  1.41116622668090E-01
 cg2d: Sum(rhs),rhsMax =  -8.52277544823679E-04  1.41110377273346E-01
 cg2d: Sum(rhs),rhsMax =  -8.51418214389171E-04  1.41104133964410E-01
 cg2d: Sum(rhs),rhsMax =  -8.50557315872250E-04  1.41097892754222E-01
 cg2d: Sum(rhs),rhsMax =  -8.49694854329417E-04  1.41091653655712E-01
 cg2d: Sum(rhs),rhsMax =  -8.48830834931661E-04  1.41085416681797E-01
 cg2d: Sum(rhs),rhsMax =  -8.47965262872868E-04  1.41079181845386E-01
 cg2d: Sum(rhs),rhsMax =  -8.47098143086615E-04  1.41072949159372E-01
 cg2d: Sum(rhs),rhsMax =  -8.46229480894807E-04  1.41066718636639E-01
 cg2d: Sum(rhs),rhsMax =  -8.45359281305186E-04  1.41060490290059E-01
 cg2d: Sum(rhs),rhsMax =  -8.44487549364450E-04  1.41054264132491E-01
 cg2d: Sum(rhs),rhsMax =  -8.43614290159283E-04  1.41048040176786E-01
 cg2d: Sum(rhs),rhsMax =  -8.42739508799383E-04  1.41041818435778E-01
 cg2d: Sum(rhs),rhsMax =  -8.41863210412851E-04  1.41035598922294E-01
 cg2d: Sum(rhs),rhsMax =  -8.40985399842914E-04  1.41029381649147E-01
 cg2d: Sum(rhs),rhsMax =  -8.40106082324801E-04  1.41023166629138E-01
 cg2d: Sum(rhs),rhsMax =  -8.39225262771526E-04  1.41016953875058E-01
 cg2d: Sum(rhs),rhsMax =  -8.38342946192719E-04  1.41010743399684E-01
 cg2d: Sum(rhs),rhsMax =  -8.37459137685764E-04  1.41004535215782E-01
 cg2d: Sum(rhs),rhsMax =  -8.36573842200314E-04  1.40998329336106E-01
 cg2d: Sum(rhs),rhsMax =  -8.35687064631189E-04  1.40992125773399E-01
 cg2d: Sum(rhs),rhsMax =  -8.34798810078726E-04  1.40985924540391E-01
 cg2d: Sum(rhs),rhsMax =  -8.33909083388176E-04  1.40979725649800E-01
 cg2d: Sum(rhs),rhsMax =  -8.33017889547475E-04  1.40973529114333E-01
 cg2d: Sum(rhs),rhsMax =  -8.32125233553059E-04  1.40967334946683E-01
 cg2d: Sum(rhs),rhsMax =  -8.31231120359873E-04  1.40961143159533E-01
 cg2d: Sum(rhs),rhsMax =  -8.30335554856588E-04  1.40954953765554E-01
 cg2d: Sum(rhs),rhsMax =  -8.29438541846256E-04  1.40948766777403E-01
 cg2d: Sum(rhs),rhsMax =  -8.28540086458479E-04  1.40942582207725E-01
 cg2d: Sum(rhs),rhsMax =  -8.27640193446597E-04  1.40936400069155E-01
(PID.TID 0000.0001)      cg2d_init_res =   6.50450491931247E-04
(PID.TID 0000.0001)      cg2d_iters(min,last) =      -1      71
(PID.TID 0000.0001)      cg2d_last_res =   9.72055882756076E-08
(PID.TID 0000.0001) // =======================================================
(PID.TID 0000.0001) // Begin MONITOR dynamic field statistics
(PID.TID 0000.0001) // =======================================================
(PID.TID 0000.0001) %MON time_tsnumber                =                 15336
(PID.TID 0000.0001) %MON time_secondsf                =   1.8403200000000E+07
(PID.TID 0000.0001) %MON dynstat_eta_max              =   4.9613390057749E-02
(PID.TID 0000.0001) %MON dynstat_eta_min              =  -1.9457356052717E-02
(PID.TID 0000.0001) %MON dynstat_eta_mean             =   5.8256245409414E-07
(PID.TID 0000.0001) %MON dynstat_eta_sd               =   1.5578377881594E-02
(PID.TID 0000.0001) %MON dynstat_eta_del2             =   1.8031593643505E-05
(PID.TID 0000.0001) %MON dynstat_uvel_max             =   3.1516743378996E-02
(PID.TID 0000.0001) %MON dynstat_uvel_min             =  -1.6453659231080E-02
(PID.TID 0000.0001) %MON dynstat_uvel_mean            =   1.2755121531178E-07
(PID.TID 0000.0001) %MON dynstat_uvel_sd              =   6.1145884523037E-03
(PID.TID 0000.0001) %MON dynstat_uvel_del2            =   7.7324361767009E-06
(PID.TID 0000.0001) %MON dynstat_vvel_max             =   8.4838273347672E-02
(PID.TID 0000.0001) %MON dynstat_vvel_min             =  -3.1626399992883E-02
(PID.TID 0000.0001) %MON dynstat_vvel_mean            =  -2.1678116058409E-09
(PID.TID 0000.0001) %MON dynstat_vvel_sd              =   1.4864637189893E-02
(PID.TID 0000.0001) %MON dynstat_vvel_del2            =   7.5032879575000E-05
(PID.TID 0000.0001) %MON dynstat_wvel_max             =   9.4643188562077E-09
(PID.TID 0000.0001) %MON dynstat_wvel_min             =  -7.1793899370823E-09
(PID.TID 0000.0001) %MON dynstat_wvel_mean            =  -6.6033853348320E-21
(PID.TID 0000.0001) %MON dynstat_wvel_sd              =   3.9828527353608E-09
(PID.TID 0000.0001) %MON dynstat_wvel_del2            =   1.3645888140009E-12
(PID.TID 0000.0001) %MON dynstat_theta_max            =   2.0000000000000E+01
(PID.TID 0000.0001) %MON dynstat_theta_min            =   2.0000000000000E+01
(PID.TID 0000.0001) %MON dynstat_theta_mean           =   2.0000000000000E+01
(PID.TID 0000.0001) %MON dynstat_theta_sd             =   0.0000000000000E+00
(PID.TID 0000.0001) %MON dynstat_theta_del2           =   0.0000000000000E+00
(PID.TID 0000.0001) %MON dynstat_salt_max             =   3.0000000000000E+01
(PID.TID 0000.0001) %MON dynstat_salt_min             =   3.0000000000000E+01
(PID.TID 0000.0001) %MON dynstat_salt_mean            =   3.0000000000000E+01
(PID.TID 0000.0001) %MON dynstat_salt_sd              =   0.0000000000000E+00
(PID.TID 0000.0001) %MON dynstat_salt_del2            =   0.0000000000000E+00
(PID.TID 0000.0001) %MON trAdv_CFL_u_max              =   1.8910621945423E-03
(PID.TID 0000.0001) %MON trAdv_CFL_v_max              =   5.0905348880749E-03
(PID.TID 0000.0001) %MON trAdv_CFL_w_max              =   2.2706525853602E-09
(PID.TID 0000.0001) %MON advcfl_uvel_max              =   1.8910046027398E-03
(PID.TID 0000.0001) %MON advcfl_vvel_max              =   5.0902964008603E-03
(PID.TID 0000.0001) %MON advcfl_wvel_max              =   4.5428730509797E-09
(PID.TID 0000.0001) %MON advcfl_W_hf_max              =   0.0000000000000E+00
(PID.TID 0000.0001) %MON pe_b_mean                    =   2.3807482646366E-07
(PID.TID 0000.0001) %MON ke_max                       =   3.5947226021299E-03
(PID.TID 0000.0001) %MON ke_mean                      =   1.2701993511603E-04
(PID.TID 0000.0001) %MON ke_vol                       =   7.2000000000000E+15
(PID.TID 0000.0001) %MON vort_r_min                   =  -1.5332708416434E-06
(PID.TID 0000.0001) %MON vort_r_max                   =   2.3115609736731E-06
(PID.TID 0000.0001) %MON vort_a_mean                  =   1.0600000000000E-04
(PID.TID 0000.0001) %MON vort_a_sd                    =   3.5369393397333E-06
(PID.TID 0000.0001) %MON vort_p_mean                  =   1.1130000000000E-04
(PID.TID 0000.0001) %MON vort_p_sd                    =   4.1151218976198E-05
(PID.TID 0000.0001) %MON surfExpan_theta_mean         =  -1.3206905199089E-19
(PID.TID 0000.0001) %MON surfExpan_salt_mean          =  -1.9810263059602E-19
(PID.TID 0000.0001) // =======================================================
(PID.TID 0000.0001) // End MONITOR dynamic field statistics
(PID.TID 0000.0001) // =======================================================
 cg2d: Sum(rhs),rhsMax =  -8.26738867728458E-04  1.40930220374314E-01
 cg2d: Sum(rhs),rhsMax =  -8.25836114150862E-04  1.40924043135812E-01
 cg2d: Sum(rhs),rhsMax =  -8.24931937676328E-04  1.40917868366244E-01
 cg2d: Sum(rhs),rhsMax =  -8.24026343160346E-04  1.40911696078196E-01
 cg2d: Sum(rhs),rhsMax =  -8.23119335368083E-04  1.40905526284240E-01
 cg2d: Sum(rhs),rhsMax =  -8.22210919347266E-04  1.40899358996936E-01
 cg2d: Sum(rhs),rhsMax =  -8.21301099674794E-04  1.40893194228832E-01
 cg2d: Sum(rhs),rhsMax =  -8.20389881351418E-04  1.40887031992462E-01
 cg2d: Sum(rhs),rhsMax =  -8.19477269147147E-04  1.40880872300350E-01
 cg2d: Sum(rhs),rhsMax =  -8.18563267934906E-04  1.40874715165005E-01
 cg2d: Sum(rhs),rhsMax =  -8.17647882505918E-04  1.40868560598925E-01
 cg2d: Sum(rhs),rhsMax =  -8.16731117581479E-04  1.40862408614597E-01
 cg2d: Sum(rhs),rhsMax =  -8.15812978145960E-04  1.40856259224492E-01
 cg2d: Sum(rhs),rhsMax =  -8.14893468826620E-04  1.40850112441071E-01
 cg2d: Sum(rhs),rhsMax =  -8.13972594424802E-04  1.40843968276779E-01
 cg2d: Sum(rhs),rhsMax =  -8.13050359746782E-04  1.40837826744054E-01
 cg2d: Sum(rhs),rhsMax =  -8.12126769608809E-04  1.40831687855318E-01
 cg2d: Sum(rhs),rhsMax =  -8.11201828708916E-04  1.40825551622978E-01
 cg2d: Sum(rhs),rhsMax =  -8.10275541818166E-04  1.40819418059434E-01
 cg2d: Sum(rhs),rhsMax =  -8.09426600590983E-04  1.40813287059279E-01
 cg2d: Sum(rhs),rhsMax =  -8.08576387986508E-04  1.40807158877491E-01
 cg2d: Sum(rhs),rhsMax =  -8.07725015029261E-04  1.40801033393855E-01
 cg2d: Sum(rhs),rhsMax =  -8.06872468509920E-04  1.40794910625953E-01
 cg2d: Sum(rhs),rhsMax =  -8.06018757171634E-04  1.40788790588320E-01
 cg2d: Sum(rhs),rhsMax =  -8.05163885758649E-04  1.40782673293450E-01
 cg2d: Sum(rhs),rhsMax =  -8.04307856126719E-04  1.40776558753505E-01
 cg2d: Sum(rhs),rhsMax =  -8.03450669686492E-04  1.40770446980772E-01
 cg2d: Sum(rhs),rhsMax =  -8.02592329020381E-04  1.40764337987699E-01
 cg2d: Sum(rhs),rhsMax =  -8.01732838357793E-04  1.40758231786731E-01
 cg2d: Sum(rhs),rhsMax =  -8.00872202663877E-04  1.40752128390197E-01
 cg2d: Sum(rhs),rhsMax =  -8.00010426979642E-04  1.40746027810309E-01
 cg2d: Sum(rhs),rhsMax =  -7.99147516134318E-04  1.40739930059227E-01
 cg2d: Sum(rhs),rhsMax =  -7.98283474494696E-04  1.40733835149122E-01
 cg2d: Sum(rhs),rhsMax =  -7.97418306149084E-04  1.40727743092177E-01
 cg2d: Sum(rhs),rhsMax =  -7.96552015257673E-04  1.40721653900591E-01
 cg2d: Sum(rhs),rhsMax =  -7.95684606048608E-04  1.40715567586553E-01
 cg2d: Sum(rhs),rhsMax =  -7.94816082671338E-04  1.40709484162235E-01
 cg2d: Sum(rhs),rhsMax =  -7.93946449553115E-04  1.40703403639789E-01
 cg2d: Sum(rhs),rhsMax =  -7.93075710921506E-04  1.40697326031353E-01
 cg2d: Sum(rhs),rhsMax =  -7.92203871195476E-04  1.40691251349046E-01
 cg2d: Sum(rhs),rhsMax =  -7.91330934629898E-04  1.40685179604981E-01
 cg2d: Sum(rhs),rhsMax =  -7.90456905433841E-04  1.40679110811252E-01
 cg2d: Sum(rhs),rhsMax =  -7.89581787936792E-04  1.40673044979946E-01
 cg2d: Sum(rhs),rhsMax =  -7.88705586307811E-04  1.40666982123132E-01
 cg2d: Sum(rhs),rhsMax =  -7.87828304864255E-04  1.40660922252865E-01
 cg2d: Sum(rhs),rhsMax =  -7.86949947768309E-04  1.40654865381190E-01
 cg2d: Sum(rhs),rhsMax =  -7.86070519424627E-04  1.40648811520135E-01
 cg2d: Sum(rhs),rhsMax =  -7.85190023949421E-04  1.40642760681714E-01
 cg2d: Sum(rhs),rhsMax =  -7.84308465659558E-04  1.40636712877932E-01
 cg2d: Sum(rhs),rhsMax =  -7.83425848754873E-04  1.40630668120777E-01
 cg2d: Sum(rhs),rhsMax =  -7.82542177396020E-04  1.40624626422224E-01
 cg2d: Sum(rhs),rhsMax =  -7.81657456021932E-04  1.40618587794238E-01
 cg2d: Sum(rhs),rhsMax =  -7.80771688611239E-04  1.40612552248765E-01
 cg2d: Sum(rhs),rhsMax =  -7.79884879577901E-04  1.40606519797740E-01
 cg2d: Sum(rhs),rhsMax =  -7.78997033072861E-04  1.40600490453084E-01
 cg2d: Sum(rhs),rhsMax =  -7.78108153301212E-04  1.40594464226705E-01
 cg2d: Sum(rhs),rhsMax =  -7.77218244504427E-04  1.40588441130495E-01
 cg2d: Sum(rhs),rhsMax =  -7.76327310877753E-04  1.40582421176334E-01
 cg2d: Sum(rhs),rhsMax =  -7.75435356625293E-04  1.40576404376088E-01
 cg2d: Sum(rhs),rhsMax =  -7.74542385932206E-04  1.40570390741609E-01
 cg2d: Sum(rhs),rhsMax =  -7.73648403043477E-04  1.40564380284735E-01
 cg2d: Sum(rhs),rhsMax =  -7.72753412174836E-04  1.40558373017290E-01
 cg2d: Sum(rhs),rhsMax =  -7.71857417428994E-04  1.40552368951086E-01
 cg2d: Sum(rhs),rhsMax =  -7.70960423138453E-04  1.40546368097918E-01
 cg2d: Sum(rhs),rhsMax =  -7.70062433408748E-04  1.40540370469569E-01
 cg2d: Sum(rhs),rhsMax =  -7.69163452454679E-04  1.40534376077808E-01
 cg2d: Sum(rhs),rhsMax =  -7.68263484368823E-04  1.40528384934389E-01
 cg2d: Sum(rhs),rhsMax =  -7.67362533505722E-04  1.40522397051053E-01
 cg2d: Sum(rhs),rhsMax =  -7.66460603952144E-04  1.40516412439526E-01
 cg2d: Sum(rhs),rhsMax =  -7.65557699929199E-04  1.40510431111520E-01
 cg2d: Sum(rhs),rhsMax =  -7.64653825601972E-04  1.40504453078735E-01
 cg2d: Sum(rhs),rhsMax =  -7.63748985132364E-04  1.40498478352853E-01
(PID.TID 0000.0001)      cg2d_init_res =   6.48460356187037E-04
(PID.TID 0000.0001)      cg2d_iters(min,last) =      -1      72
(PID.TID 0000.0001)      cg2d_last_res =   8.85601241480016E-08
(PID.TID 0000.0001) // =======================================================
(PID.TID 0000.0001) // Begin MONITOR dynamic field statistics
(PID.TID 0000.0001) // =======================================================
(PID.TID 0000.0001) %MON time_tsnumber                =                 15408
(PID.TID 0000.0001) %MON time_secondsf                =   1.8489600000000E+07
(PID.TID 0000.0001) %MON dynstat_eta_max              =   4.9188834405520E-02
(PID.TID 0000.0001) %MON dynstat_eta_min              =  -1.9574097684281E-02
(PID.TID 0000.0001) %MON dynstat_eta_mean             =   5.3586875571198E-07
(PID.TID 0000.0001) %MON dynstat_eta_sd               =   1.5477351287176E-02
(PID.TID 0000.0001) %MON dynstat_eta_del2             =   1.8023236580946E-05
(PID.TID 0000.0001) %MON dynstat_uvel_max             =   3.1447816572282E-02
(PID.TID 0000.0001) %MON dynstat_uvel_min             =  -1.6356804366915E-02
(PID.TID 0000.0001) %MON dynstat_uvel_mean            =   1.1367890272187E-07
(PID.TID 0000.0001) %MON dynstat_uvel_sd              =   6.1175213634909E-03
(PID.TID 0000.0001) %MON dynstat_uvel_del2            =   7.7253396398669E-06
(PID.TID 0000.0001) %MON dynstat_vvel_max             =   8.4555127895633E-02
(PID.TID 0000.0001) %MON dynstat_vvel_min             =  -3.1754972786626E-02
(PID.TID 0000.0001) %MON dynstat_vvel_mean            =  -2.4468725323410E-09
(PID.TID 0000.0001) %MON dynstat_vvel_sd              =   1.4823485073259E-02
(PID.TID 0000.0001) %MON dynstat_vvel_del2            =   7.4912821289755E-05
(PID.TID 0000.0001) %MON dynstat_wvel_max             =   9.6561002599356E-09
(PID.TID 0000.0001) %MON dynstat_wvel_min             =  -6.8175529126893E-09
(PID.TID 0000.0001) %MON dynstat_wvel_mean            =   7.3980825416382E-22
(PID.TID 0000.0001) %MON dynstat_wvel_sd              =   3.9473866535191E-09
(PID.TID 0000.0001) %MON dynstat_wvel_del2            =   1.3680547993091E-12
(PID.TID 0000.0001) %MON dynstat_theta_max            =   2.0000000000000E+01
(PID.TID 0000.0001) %MON dynstat_theta_min            =   2.0000000000000E+01
(PID.TID 0000.0001) %MON dynstat_theta_mean           =   2.0000000000000E+01
(PID.TID 0000.0001) %MON dynstat_theta_sd             =   0.0000000000000E+00
(PID.TID 0000.0001) %MON dynstat_theta_del2           =   0.0000000000000E+00
(PID.TID 0000.0001) %MON dynstat_salt_max             =   3.0000000000000E+01
(PID.TID 0000.0001) %MON dynstat_salt_min             =   3.0000000000000E+01
(PID.TID 0000.0001) %MON dynstat_salt_mean            =   3.0000000000000E+01
(PID.TID 0000.0001) %MON dynstat_salt_sd              =   0.0000000000000E+00
(PID.TID 0000.0001) %MON dynstat_salt_del2            =   0.0000000000000E+00
(PID.TID 0000.0001) %MON trAdv_CFL_u_max              =   1.8869261592585E-03
(PID.TID 0000.0001) %MON trAdv_CFL_v_max              =   5.0735407578528E-03
(PID.TID 0000.0001) %MON trAdv_CFL_w_max              =   2.3169953094275E-09
(PID.TID 0000.0001) %MON advcfl_uvel_max              =   1.8868689943369E-03
(PID.TID 0000.0001) %MON advcfl_vvel_max              =   5.0733076737380E-03
(PID.TID 0000.0001) %MON advcfl_wvel_max              =   4.6349281247691E-09
(PID.TID 0000.0001) %MON advcfl_W_hf_max              =   0.0000000000000E+00
(PID.TID 0000.0001) %MON pe_b_mean                    =   2.3499698349389E-07
(PID.TID 0000.0001) %MON ke_max                       =   3.5712515536585E-03
(PID.TID 0000.0001) %MON ke_mean                      =   1.2643689053673E-04
(PID.TID 0000.0001) %MON ke_vol                       =   7.2000000000000E+15
(PID.TID 0000.0001) %MON vort_r_min                   =  -1.5319334428358E-06
(PID.TID 0000.0001) %MON vort_r_max                   =   2.3038835490892E-06
(PID.TID 0000.0001) %MON vort_a_mean                  =   1.0600000000000E-04
(PID.TID 0000.0001) %MON vort_a_sd                    =   3.5368794022680E-06
(PID.TID 0000.0001) %MON vort_p_mean                  =   1.1130000000000E-04
(PID.TID 0000.0001) %MON vort_p_sd                    =   4.1151198933963E-05
(PID.TID 0000.0001) %MON surfExpan_theta_mean         =   1.4793815555297E-20
(PID.TID 0000.0001) %MON surfExpan_salt_mean          =   2.2189933841016E-20
(PID.TID 0000.0001) // =======================================================
(PID.TID 0000.0001) // End MONITOR dynamic field statistics
(PID.TID 0000.0001) // =======================================================
 cg2d: Sum(rhs),rhsMax =  -7.62843182714465E-04  1.40492506945546E-01
 cg2d: Sum(rhs),rhsMax =  -7.61936422479374E-04  1.40486538868469E-01
 cg2d: Sum(rhs),rhsMax =  -7.61028708675755E-04  1.40480574133263E-01
 cg2d: Sum(rhs),rhsMax =  -7.60120045491948E-04  1.40474612751556E-01
 cg2d: Sum(rhs),rhsMax =  -7.59210436999755E-04  1.40468654734962E-01
 cg2d: Sum(rhs),rhsMax =  -7.58299887430876E-04  1.40462700095078E-01
 cg2d: Sum(rhs),rhsMax =  -7.57388401028199E-04  1.40456748843491E-01
 cg2d: Sum(rhs),rhsMax =  -7.56475981829362E-04  1.40450800991768E-01
 cg2d: Sum(rhs),rhsMax =  -7.55562634104950E-04  1.40444856551468E-01
 cg2d: Sum(rhs),rhsMax =  -7.54648361934953E-04  1.40438915534131E-01
 cg2d: Sum(rhs),rhsMax =  -7.53733169585982E-04  1.40432977951284E-01
 cg2d: Sum(rhs),rhsMax =  -7.52817061142998E-04  1.40427043814439E-01
 cg2d: Sum(rhs),rhsMax =  -7.51900040883909E-04  1.40421113135096E-01
 cg2d: Sum(rhs),rhsMax =  -7.50982112835296E-04  1.40415185924738E-01
 cg2d: Sum(rhs),rhsMax =  -7.50063281160280E-04  1.40409262194833E-01
 cg2d: Sum(rhs),rhsMax =  -7.49143550222278E-04  1.40403341956837E-01
 cg2d: Sum(rhs),rhsMax =  -7.48222923989949E-04  1.40397425222190E-01
 cg2d: Sum(rhs),rhsMax =  -7.47301406690625E-04  1.40391512002317E-01
 cg2d: Sum(rhs),rhsMax =  -7.46379002516122E-04  1.40385602308629E-01
 cg2d: Sum(rhs),rhsMax =  -7.45455715596934E-04  1.40379696152521E-01
 cg2d: Sum(rhs),rhsMax =  -7.44531550099497E-04  1.40373793545378E-01
 cg2d: Sum(rhs),rhsMax =  -7.43606510286097E-04  1.40367894498563E-01
 cg2d: Sum(rhs),rhsMax =  -7.42680600198953E-04  1.40361999023431E-01
 cg2d: Sum(rhs),rhsMax =  -7.41753824067870E-04  1.40356107131319E-01
 cg2d: Sum(rhs),rhsMax =  -7.40826186008431E-04  1.40350218833548E-01
 cg2d: Sum(rhs),rhsMax =  -7.39897690270919E-04  1.40344334141428E-01
 cg2d: Sum(rhs),rhsMax =  -7.38968341016694E-04  1.40338453066251E-01
 cg2d: Sum(rhs),rhsMax =  -7.38038142314480E-04  1.40332575619296E-01
 cg2d: Sum(rhs),rhsMax =  -7.37107098486097E-04  1.40326701811825E-01
 cg2d: Sum(rhs),rhsMax =  -7.36175213546829E-04  1.40320831655089E-01
 cg2d: Sum(rhs),rhsMax =  -7.35242491737923E-04  1.40314965160320E-01
 cg2d: Sum(rhs),rhsMax =  -7.34308937268861E-04  1.40309102338737E-01
 cg2d: Sum(rhs),rhsMax =  -7.33374554390038E-04  1.40303243201544E-01
 cg2d: Sum(rhs),rhsMax =  -7.32439347137967E-04  1.40297387759929E-01
 cg2d: Sum(rhs),rhsMax =  -7.31503319725779E-04  1.40291536025066E-01
 cg2d: Sum(rhs),rhsMax =  -7.30566476269229E-04  1.40285688008116E-01
 cg2d: Sum(rhs),rhsMax =  -7.29628821191708E-04  1.40279843720220E-01
 cg2d: Sum(rhs),rhsMax =  -7.28690358528625E-04  1.40274003172508E-01
 cg2d: Sum(rhs),rhsMax =  -7.27751092394396E-04  1.40268166376093E-01
 cg2d: Sum(rhs),rhsMax =  -7.26811027051895E-04  1.40262333342074E-01
 cg2d: Sum(rhs),rhsMax =  -7.25870166800814E-04  1.40256504081534E-01
 cg2d: Sum(rhs),rhsMax =  -7.24928515652277E-04  1.40250678605541E-01
 cg2d: Sum(rhs),rhsMax =  -7.23986077895827E-04  1.40244856925149E-01
 cg2d: Sum(rhs),rhsMax =  -7.23042857700556E-04  1.40239039051394E-01
 cg2d: Sum(rhs),rhsMax =  -7.22098859344257E-04  1.40233224995299E-01
 cg2d: Sum(rhs),rhsMax =  -7.21154086968266E-04  1.40227414767873E-01
 cg2d: Sum(rhs),rhsMax =  -7.20208544766993E-04  1.40221608380106E-01
 cg2d: Sum(rhs),rhsMax =  -7.19262237039462E-04  1.40215805842975E-01
 cg2d: Sum(rhs),rhsMax =  -7.18315167926253E-04  1.40210007167442E-01
 cg2d: Sum(rhs),rhsMax =  -7.17367341636308E-04  1.40204212364453E-01
 cg2d: Sum(rhs),rhsMax =  -7.16418762473726E-04  1.40198421444937E-01
 cg2d: Sum(rhs),rhsMax =  -7.15469434517832E-04  1.40192634419811E-01
 cg2d: Sum(rhs),rhsMax =  -7.14519362184176E-04  1.40186851299974E-01
 cg2d: Sum(rhs),rhsMax =  -7.13568549650264E-04  1.40181072096310E-01
 cg2d: Sum(rhs),rhsMax =  -7.12617001038559E-04  1.40175296819689E-01
 cg2d: Sum(rhs),rhsMax =  -7.11664720736478E-04  1.40169525480963E-01
 cg2d: Sum(rhs),rhsMax =  -7.10711712889624E-04  1.40163758090970E-01
 cg2d: Sum(rhs),rhsMax =  -7.09757981832729E-04  1.40157994660533E-01
 cg2d: Sum(rhs),rhsMax =  -7.08803531716537E-04  1.40152235200458E-01
 cg2d: Sum(rhs),rhsMax =  -7.07848366889840E-04  1.40146479721537E-01
 cg2d: Sum(rhs),rhsMax =  -7.06892491575664E-04  1.40140728234544E-01
 cg2d: Sum(rhs),rhsMax =  -7.05935910071259E-04  1.40134980750241E-01
 cg2d: Sum(rhs),rhsMax =  -7.04978626610234E-04  1.40129237279371E-01
 cg2d: Sum(rhs),rhsMax =  -7.04020645480773E-04  1.40123497832662E-01
 cg2d: Sum(rhs),rhsMax =  -7.03061970927071E-04  1.40117762420827E-01
 cg2d: Sum(rhs),rhsMax =  -7.02102607386727E-04  1.40112031054564E-01
 cg2d: Sum(rhs),rhsMax =  -7.01142558979843E-04  1.40106303744554E-01
 cg2d: Sum(rhs),rhsMax =  -7.00181830063294E-04  1.40100580501463E-01
 cg2d: Sum(rhs),rhsMax =  -6.99220425003926E-04  1.40094861335940E-01
 cg2d: Sum(rhs),rhsMax =  -6.98258348029407E-04  1.40089146258619E-01
 cg2d: Sum(rhs),rhsMax =  -6.97295603475522E-04  1.40083435280119E-01
 cg2d: Sum(rhs),rhsMax =  -6.96332195657443E-04  1.40077728411042E-01
(PID.TID 0000.0001)      cg2d_init_res =   6.46109778746648E-04
(PID.TID 0000.0001)      cg2d_iters(min,last) =      -1      72
(PID.TID 0000.0001)      cg2d_last_res =   9.66877634263317E-08
(PID.TID 0000.0001) // =======================================================
(PID.TID 0000.0001) // Begin MONITOR dynamic field statistics
(PID.TID 0000.0001) // =======================================================
(PID.TID 0000.0001) %MON time_tsnumber                =                 15480
(PID.TID 0000.0001) %MON time_secondsf                =   1.8576000000000E+07
(PID.TID 0000.0001) %MON dynstat_eta_max              =   4.8756381458233E-02
(PID.TID 0000.0001) %MON dynstat_eta_min              =  -1.9711103003207E-02
(PID.TID 0000.0001) %MON dynstat_eta_mean             =   4.8700811204296E-07
(PID.TID 0000.0001) %MON dynstat_eta_sd               =   1.5401211096623E-02
(PID.TID 0000.0001) %MON dynstat_eta_del2             =   1.8012885485514E-05
(PID.TID 0000.0001) %MON dynstat_uvel_max             =   3.1379859301188E-02
(PID.TID 0000.0001) %MON dynstat_uvel_min             =  -1.6263552444331E-02
(PID.TID 0000.0001) %MON dynstat_uvel_mean            =   9.8441192823548E-08
(PID.TID 0000.0001) %MON dynstat_uvel_sd              =   6.1279078105790E-03
(PID.TID 0000.0001) %MON dynstat_uvel_del2            =   7.7219793159852E-06
(PID.TID 0000.0001) %MON dynstat_vvel_max             =   8.4279941279061E-02
(PID.TID 0000.0001) %MON dynstat_vvel_min             =  -3.1872289671447E-02
(PID.TID 0000.0001) %MON dynstat_vvel_mean            =  -2.6450668204728E-09
(PID.TID 0000.0001) %MON dynstat_vvel_sd              =   1.4783527931064E-02
(PID.TID 0000.0001) %MON dynstat_vvel_del2            =   7.4790842471118E-05
(PID.TID 0000.0001) %MON dynstat_wvel_max             =   9.8243537358667E-09
(PID.TID 0000.0001) %MON dynstat_wvel_min             =  -6.4507182152010E-09
(PID.TID 0000.0001) %MON dynstat_wvel_mean            =   3.2532524427451E-21
(PID.TID 0000.0001) %MON dynstat_wvel_sd              =   3.9141869488849E-09
(PID.TID 0000.0001) %MON dynstat_wvel_del2            =   1.3670857511319E-12
(PID.TID 0000.0001) %MON dynstat_theta_max            =   2.0000000000000E+01
(PID.TID 0000.0001) %MON dynstat_theta_min            =   2.0000000000000E+01
(PID.TID 0000.0001) %MON dynstat_theta_mean           =   2.0000000000000E+01
(PID.TID 0000.0001) %MON dynstat_theta_sd             =   0.0000000000000E+00
(PID.TID 0000.0001) %MON dynstat_theta_del2           =   0.0000000000000E+00
(PID.TID 0000.0001) %MON dynstat_salt_max             =   3.0000000000000E+01
(PID.TID 0000.0001) %MON dynstat_salt_min             =   3.0000000000000E+01
(PID.TID 0000.0001) %MON dynstat_salt_mean            =   3.0000000000000E+01
(PID.TID 0000.0001) %MON dynstat_salt_sd              =   0.0000000000000E+00
(PID.TID 0000.0001) %MON dynstat_salt_del2            =   0.0000000000000E+00
(PID.TID 0000.0001) %MON trAdv_CFL_u_max              =   1.8828475505022E-03
(PID.TID 0000.0001) %MON trAdv_CFL_v_max              =   5.0570217594206E-03
(PID.TID 0000.0001) %MON trAdv_CFL_w_max              =   2.3573678143235E-09
(PID.TID 0000.0001) %MON advcfl_uvel_max              =   1.8827915580713E-03
(PID.TID 0000.0001) %MON advcfl_vvel_max              =   5.0567964767437E-03
(PID.TID 0000.0001) %MON advcfl_wvel_max              =   4.7156897932160E-09
(PID.TID 0000.0001) %MON advcfl_W_hf_max              =   0.0000000000000E+00
(PID.TID 0000.0001) %MON pe_b_mean                    =   2.3269055471380E-07
(PID.TID 0000.0001) %MON ke_max                       =   3.5484755364069E-03
(PID.TID 0000.0001) %MON ke_mean                      =   1.2591777651466E-04
(PID.TID 0000.0001) %MON ke_vol                       =   7.2000000000000E+15
(PID.TID 0000.0001) %MON vort_r_min                   =  -1.5303546495374E-06
(PID.TID 0000.0001) %MON vort_r_max                   =   2.2966482932476E-06
(PID.TID 0000.0001) %MON vort_a_mean                  =   1.0600000000000E-04
(PID.TID 0000.0001) %MON vort_a_sd                    =   3.5368203782317E-06
(PID.TID 0000.0001) %MON vort_p_mean                  =   1.1130000000000E-04
(PID.TID 0000.0001) %MON vort_p_sd                    =   4.1151184383924E-05
(PID.TID 0000.0001) %MON surfExpan_theta_mean         =   6.5059819260366E-20
(PID.TID 0000.0001) %MON surfExpan_salt_mean          =   9.7589097297007E-20
(PID.TID 0000.0001) // =======================================================
(PID.TID 0000.0001) // End MONITOR dynamic field statistics
(PID.TID 0000.0001) // =======================================================
 cg2d: Sum(rhs),rhsMax =  -6.95368129012090E-04  1.40072025661973E-01
 cg2d: Sum(rhs),rhsMax =  -6.94403407709247E-04  1.40066327043484E-01
 cg2d: Sum(rhs),rhsMax =  -6.93438036201183E-04  1.40060632566130E-01
 cg2d: Sum(rhs),rhsMax =  -6.92472018871270E-04  1.40054942240449E-01
 cg2d: Sum(rhs),rhsMax =  -6.91505359858649E-04  1.40049256076962E-01
 cg2d: Sum(rhs),rhsMax =  -6.90538063787449E-04  1.40043574086179E-01
 cg2d: Sum(rhs),rhsMax =  -6.89570134822034E-04  1.40037896278588E-01
 cg2d: Sum(rhs),rhsMax =  -6.88601577541206E-04  1.40032222664664E-01
 cg2d: Sum(rhs),rhsMax =  -6.87632396174649E-04  1.40026553254867E-01
 cg2d: Sum(rhs),rhsMax =  -6.86662595160002E-04  1.40020888059637E-01
 cg2d: Sum(rhs),rhsMax =  -6.85692178851066E-04  1.40015227089403E-01
 cg2d: Sum(rhs),rhsMax =  -6.84721151701511E-04  1.40009570354574E-01
 cg2d: Sum(rhs),rhsMax =  -6.83749518140975E-04  1.40003917865544E-01
 cg2d: Sum(rhs),rhsMax =  -6.82777282581254E-04  1.39998269632691E-01
 cg2d: Sum(rhs),rhsMax =  -6.81804449406742E-04  1.39992625666377E-01
 cg2d: Sum(rhs),rhsMax =  -6.80831023117036E-04  1.39986985976947E-01
 cg2d: Sum(rhs),rhsMax =  -6.79857008146732E-04  1.39981350574731E-01
 cg2d: Sum(rhs),rhsMax =  -6.78882408940307E-04  1.39975719470042E-01
 cg2d: Sum(rhs),rhsMax =  -6.77907229965634E-04  1.39970092673176E-01
 cg2d: Sum(rhs),rhsMax =  -6.76931475732132E-04  1.39964470194413E-01
 cg2d: Sum(rhs),rhsMax =  -6.75955150658719E-04  1.39958852044019E-01
 cg2d: Sum(rhs),rhsMax =  -6.74978259263825E-04  1.39953238232240E-01
 cg2d: Sum(rhs),rhsMax =  -6.74000806086214E-04  1.39947628769309E-01
 cg2d: Sum(rhs),rhsMax =  -6.73022795589583E-04  1.39942023665440E-01
 cg2d: Sum(rhs),rhsMax =  -6.72044232273987E-04  1.39936422930831E-01
 cg2d: Sum(rhs),rhsMax =  -6.71065120765174E-04  1.39930826575666E-01
 cg2d: Sum(rhs),rhsMax =  -6.70085465566109E-04  1.39925234610109E-01
 cg2d: Sum(rhs),rhsMax =  -6.69105271184839E-04  1.39919647044311E-01
 cg2d: Sum(rhs),rhsMax =  -6.68124542277663E-04  1.39914063888403E-01
 cg2d: Sum(rhs),rhsMax =  -6.67143283302301E-04  1.39908485152503E-01
 cg2d: Sum(rhs),rhsMax =  -6.66161498916666E-04  1.39902910846710E-01
 cg2d: Sum(rhs),rhsMax =  -6.65179193735340E-04  1.39897340981106E-01
 cg2d: Sum(rhs),rhsMax =  -6.64196372372862E-04  1.39891775565759E-01
 cg2d: Sum(rhs),rhsMax =  -6.63213039320129E-04  1.39886214610720E-01
 cg2d: Sum(rhs),rhsMax =  -6.62229199408768E-04  1.39880658126020E-01
 cg2d: Sum(rhs),rhsMax =  -6.61341290042357E-04  1.39875106263129E-01
 cg2d: Sum(rhs),rhsMax =  -6.60453053064508E-04  1.39869558745825E-01
 cg2d: Sum(rhs),rhsMax =  -6.59564393819001E-04  1.39864015730153E-01
 cg2d: Sum(rhs),rhsMax =  -6.58675349923264E-04  1.39858477223036E-01
 cg2d: Sum(rhs),rhsMax =  -6.57785921400275E-04  1.39852943236058E-01
 cg2d: Sum(rhs),rhsMax =  -6.56896112817294E-04  1.39847413779646E-01
 cg2d: Sum(rhs),rhsMax =  -6.56005929092039E-04  1.39841888863648E-01
 cg2d: Sum(rhs),rhsMax =  -6.55115375451962E-04  1.39836368497651E-01
 cg2d: Sum(rhs),rhsMax =  -6.54224457078397E-04  1.39830852691400E-01
 cg2d: Sum(rhs),rhsMax =  -6.53333178516478E-04  1.39825341454803E-01
 cg2d: Sum(rhs),rhsMax =  -6.52441544240745E-04  1.39819834797797E-01
 cg2d: Sum(rhs),rhsMax =  -6.51549558666457E-04  1.39814332730267E-01
 cg2d: Sum(rhs),rhsMax =  -6.50657226188923E-04  1.39808835262039E-01
 cg2d: Sum(rhs),rhsMax =  -6.49764551394920E-04  1.39803342402899E-01
 cg2d: Sum(rhs),rhsMax =  -6.48871539103934E-04  1.39797854162611E-01
 cg2d: Sum(rhs),rhsMax =  -6.47978193778833E-04  1.39792370550921E-01
 cg2d: Sum(rhs),rhsMax =  -6.47084520344451E-04  1.39786891577564E-01
 cg2d: Sum(rhs),rhsMax =  -6.46190523510457E-04  1.39781417252267E-01
 cg2d: Sum(rhs),rhsMax =  -6.45296207858475E-04  1.39775947584744E-01
 cg2d: Sum(rhs),rhsMax =  -6.44401578252736E-04  1.39770482584697E-01
 cg2d: Sum(rhs),rhsMax =  -6.43506639358983E-04  1.39765022261812E-01
 cg2d: Sum(rhs),rhsMax =  -6.42611396047776E-04  1.39759566625759E-01
 cg2d: Sum(rhs),rhsMax =  -6.41715852975159E-04  1.39754115686186E-01
 cg2d: Sum(rhs),rhsMax =  -6.40820015093674E-04  1.39748669452721E-01
 cg2d: Sum(rhs),rhsMax =  -6.39923887227385E-04  1.39743227934974E-01
 cg2d: Sum(rhs),rhsMax =  -6.39027474304224E-04  1.39737791142538E-01
 cg2d: Sum(rhs),rhsMax =  -6.38130781174721E-04  1.39732359084987E-01
 cg2d: Sum(rhs),rhsMax =  -6.37233812834069E-04  1.39726931771879E-01
 cg2d: Sum(rhs),rhsMax =  -6.36336574139269E-04  1.39721509212758E-01
 cg2d: Sum(rhs),rhsMax =  -6.35439070009319E-04  1.39716091417146E-01
 cg2d: Sum(rhs),rhsMax =  -6.34541305657957E-04  1.39710678394555E-01
 cg2d: Sum(rhs),rhsMax =  -6.33643285814585E-04  1.39705270154475E-01
 cg2d: Sum(rhs),rhsMax =  -6.32745015850716E-04  1.39699866706383E-01
 cg2d: Sum(rhs),rhsMax =  -6.31846500611610E-04  1.39694468059732E-01
 cg2d: Sum(rhs),rhsMax =  -6.30947745366270E-04  1.39689074223964E-01
 cg2d: Sum(rhs),rhsMax =  -6.30048754983142E-04  1.39683685208499E-01
 cg2d: Sum(rhs),rhsMax =  -6.29149534819712E-04  1.39678301022742E-01
(PID.TID 0000.0001)      cg2d_init_res =   6.43431995852957E-04
(PID.TID 0000.0001)      cg2d_iters(min,last) =      -1      73
(PID.TID 0000.0001)      cg2d_last_res =   9.35268487331258E-08
(PID.TID 0000.0001) // =======================================================
(PID.TID 0000.0001) // Begin MONITOR dynamic field statistics
(PID.TID 0000.0001) // =======================================================
(PID.TID 0000.0001) %MON time_tsnumber                =                 15552
(PID.TID 0000.0001) %MON time_secondsf                =   1.8662400000000E+07
(PID.TID 0000.0001) %MON dynstat_eta_max              =   4.8321547583008E-02
(PID.TID 0000.0001) %MON dynstat_eta_min              =  -1.9865807290830E-02
(PID.TID 0000.0001) %MON dynstat_eta_mean             =   4.3874762804775E-07
(PID.TID 0000.0001) %MON dynstat_eta_sd               =   1.5350766315664E-02
(PID.TID 0000.0001) %MON dynstat_eta_del2             =   1.8000773265569E-05
(PID.TID 0000.0001) %MON dynstat_uvel_max             =   3.1313741835497E-02
(PID.TID 0000.0001) %MON dynstat_uvel_min             =  -1.6174860908047E-02
(PID.TID 0000.0001) %MON dynstat_uvel_mean            =   8.2063179601599E-08
(PID.TID 0000.0001) %MON dynstat_uvel_sd              =   6.1454314129053E-03
(PID.TID 0000.0001) %MON dynstat_uvel_del2            =   7.7224418513774E-06
(PID.TID 0000.0001) %MON dynstat_vvel_max             =   8.4015488040775E-02
(PID.TID 0000.0001) %MON dynstat_vvel_min             =  -3.1970439012877E-02
(PID.TID 0000.0001) %MON dynstat_vvel_mean            =  -2.7565779333033E-09
(PID.TID 0000.0001) %MON dynstat_vvel_sd              =   1.4745225577887E-02
(PID.TID 0000.0001) %MON dynstat_vvel_del2            =   7.4668712116950E-05
(PID.TID 0000.0001) %MON dynstat_wvel_max             =   9.9593714977618E-09
(PID.TID 0000.0001) %MON dynstat_wvel_min             =  -6.0976134275552E-09
(PID.TID 0000.0001) %MON dynstat_wvel_mean            =   1.1634963609847E-23
(PID.TID 0000.0001) %MON dynstat_wvel_sd              =   3.8838508466145E-09
(PID.TID 0000.0001) %MON dynstat_wvel_del2            =   1.3620383957046E-12
(PID.TID 0000.0001) %MON dynstat_theta_max            =   2.0000000000000E+01
(PID.TID 0000.0001) %MON dynstat_theta_min            =   2.0000000000000E+01
(PID.TID 0000.0001) %MON dynstat_theta_mean           =   2.0000000000000E+01
(PID.TID 0000.0001) %MON dynstat_theta_sd             =   0.0000000000000E+00
(PID.TID 0000.0001) %MON dynstat_theta_del2           =   0.0000000000000E+00
(PID.TID 0000.0001) %MON dynstat_salt_max             =   3.0000000000000E+01
(PID.TID 0000.0001) %MON dynstat_salt_min             =   3.0000000000000E+01
(PID.TID 0000.0001) %MON dynstat_salt_mean            =   3.0000000000000E+01
(PID.TID 0000.0001) %MON dynstat_salt_sd              =   0.0000000000000E+00
(PID.TID 0000.0001) %MON dynstat_salt_del2            =   0.0000000000000E+00
(PID.TID 0000.0001) %MON trAdv_CFL_u_max              =   1.8788786262228E-03
(PID.TID 0000.0001) %MON trAdv_CFL_v_max              =   5.0411445397350E-03
(PID.TID 0000.0001) %MON trAdv_CFL_w_max              =   2.3898432042581E-09
(PID.TID 0000.0001) %MON advcfl_uvel_max              =   1.8788245101298E-03
(PID.TID 0000.0001) %MON advcfl_vvel_max              =   5.0409292824465E-03
(PID.TID 0000.0001) %MON advcfl_wvel_max              =   4.7804983189257E-09
(PID.TID 0000.0001) %MON advcfl_W_hf_max              =   0.0000000000000E+00
(PID.TID 0000.0001) %MON pe_b_mean                    =   2.3116875216389E-07
(PID.TID 0000.0001) %MON ke_max                       =   3.5266198513439E-03
(PID.TID 0000.0001) %MON ke_mean                      =   1.2546743559511E-04
(PID.TID 0000.0001) %MON ke_vol                       =   7.2000000000000E+15
(PID.TID 0000.0001) %MON vort_r_min                   =  -1.5285532776855E-06
(PID.TID 0000.0001) %MON vort_r_max                   =   2.2899205831174E-06
(PID.TID 0000.0001) %MON vort_a_mean                  =   1.0600000000000E-04
(PID.TID 0000.0001) %MON vort_a_sd                    =   3.5367630599433E-06
(PID.TID 0000.0001) %MON vort_p_mean                  =   1.1130000000000E-04
(PID.TID 0000.0001) %MON vort_p_sd                    =   4.1151174869809E-05
(PID.TID 0000.0001) %MON surfExpan_theta_mean         =   2.3033427017557E-22
(PID.TID 0000.0001) %MON surfExpan_salt_mean          =   3.4453427765079E-22
(PID.TID 0000.0001) // =======================================================
(PID.TID 0000.0001) // End MONITOR dynamic field statistics
(PID.TID 0000.0001) // =======================================================
 cg2d: Sum(rhs),rhsMax =  -6.28250089992450E-04  1.39672921676078E-01
 cg2d: Sum(rhs),rhsMax =  -6.27350425792520E-04  1.39667547177879E-01
 cg2d: Sum(rhs),rhsMax =  -6.26450547351776E-04  1.39662177537496E-01
 cg2d: Sum(rhs),rhsMax =  -6.25550460028390E-04  1.39656812764263E-01
 cg2d: Sum(rhs),rhsMax =  -6.24650168968106E-04  1.39651452867498E-01
 cg2d: Sum(rhs),rhsMax =  -6.23749679661710E-04  1.39646097856501E-01
 cg2d: Sum(rhs),rhsMax =  -6.22848997371509E-04  1.39640747740554E-01
 cg2d: Sum(rhs),rhsMax =  -6.21948127477978E-04  1.39635402528923E-01
 cg2d: Sum(rhs),rhsMax =  -6.21047075421909E-04  1.39630062230854E-01
 cg2d: Sum(rhs),rhsMax =  -6.20145846672528E-04  1.39624726855577E-01
 cg2d: Sum(rhs),rhsMax =  -6.19244446593180E-04  1.39619396412305E-01
 cg2d: Sum(rhs),rhsMax =  -6.18342880750279E-04  1.39614070910232E-01
 cg2d: Sum(rhs),rhsMax =  -6.17441154731425E-04  1.39608750358535E-01
 cg2d: Sum(rhs),rhsMax =  -6.16539274025391E-04  1.39603434766373E-01
 cg2d: Sum(rhs),rhsMax =  -6.15637244381015E-04  1.39598124142890E-01
 cg2d: Sum(rhs),rhsMax =  -6.14735071264851E-04  1.39592818497207E-01
 cg2d: Sum(rhs),rhsMax =  -6.13832760369111E-04  1.39587517838432E-01
 cg2d: Sum(rhs),rhsMax =  -6.12930317410761E-04  1.39582222175654E-01
 cg2d: Sum(rhs),rhsMax =  -6.12027748235366E-04  1.39576931517945E-01
 cg2d: Sum(rhs),rhsMax =  -6.11125058405335E-04  1.39571645874356E-01
 cg2d: Sum(rhs),rhsMax =  -6.10222253918094E-04  1.39566365253924E-01
 cg2d: Sum(rhs),rhsMax =  -6.09319340580016E-04  1.39561089665667E-01
 cg2d: Sum(rhs),rhsMax =  -6.08416324145475E-04  1.39555819118584E-01
 cg2d: Sum(rhs),rhsMax =  -6.07513210690559E-04  1.39550553621659E-01
 cg2d: Sum(rhs),rhsMax =  -6.06610006022411E-04  1.39545293183855E-01
 cg2d: Sum(rhs),rhsMax =  -6.05706716206760E-04  1.39540037814119E-01
 cg2d: Sum(rhs),rhsMax =  -6.04803347270292E-04  1.39534787521380E-01
 cg2d: Sum(rhs),rhsMax =  -6.03899905207626E-04  1.39529542314549E-01
 cg2d: Sum(rhs),rhsMax =  -6.02996396269664E-04  1.39524302202519E-01
 cg2d: Sum(rhs),rhsMax =  -6.02092826444263E-04  1.39519067194164E-01
 cg2d: Sum(rhs),rhsMax =  -6.01189202095596E-04  1.39513837298343E-01
 cg2d: Sum(rhs),rhsMax =  -6.00285529323162E-04  1.39508612523894E-01
 cg2d: Sum(rhs),rhsMax =  -5.99381814353147E-04  1.39503392879640E-01
 cg2d: Sum(rhs),rhsMax =  -5.98478063505382E-04  1.39498178374382E-01
 cg2d: Sum(rhs),rhsMax =  -5.97574283199566E-04  1.39492969016907E-01
 cg2d: Sum(rhs),rhsMax =  -5.96670479826040E-04  1.39487764815981E-01
 cg2d: Sum(rhs),rhsMax =  -5.95766659753329E-04  1.39482565780355E-01
 cg2d: Sum(rhs),rhsMax =  -5.94862829542119E-04  1.39477371918759E-01
 cg2d: Sum(rhs),rhsMax =  -5.93958995592226E-04  1.39472183239907E-01
 cg2d: Sum(rhs),rhsMax =  -5.93055164493234E-04  1.39466999752494E-01
 cg2d: Sum(rhs),rhsMax =  -5.92151342975657E-04  1.39461821465196E-01
 cg2d: Sum(rhs),rhsMax =  -5.91247537614659E-04  1.39456648386674E-01
 cg2d: Sum(rhs),rhsMax =  -5.90343755118588E-04  1.39451480525568E-01
 cg2d: Sum(rhs),rhsMax =  -5.89440002175454E-04  1.39446317890499E-01
 cg2d: Sum(rhs),rhsMax =  -5.88536285674333E-04  1.39441160490074E-01
 cg2d: Sum(rhs),rhsMax =  -5.87632612458208E-04  1.39436008332878E-01
 cg2d: Sum(rhs),rhsMax =  -5.86728989382900E-04  1.39430861427480E-01
 cg2d: Sum(rhs),rhsMax =  -5.85825423351096E-04  1.39425719782429E-01
 cg2d: Sum(rhs),rhsMax =  -5.84921921391621E-04  1.39420583406256E-01
 cg2d: Sum(rhs),rhsMax =  -5.84018490481036E-04  1.39415452307477E-01
 cg2d: Sum(rhs),rhsMax =  -5.83115137845645E-04  1.39410326494585E-01
 cg2d: Sum(rhs),rhsMax =  -5.82211870414410E-04  1.39405205976059E-01
 cg2d: Sum(rhs),rhsMax =  -5.81308695614244E-04  1.39400090760356E-01
 cg2d: Sum(rhs),rhsMax =  -5.80405620604656E-04  1.39394980855916E-01
 cg2d: Sum(rhs),rhsMax =  -5.79502652630046E-04  1.39389876271162E-01
 cg2d: Sum(rhs),rhsMax =  -5.78599799087352E-04  1.39384777014498E-01
 cg2d: Sum(rhs),rhsMax =  -5.77697067285978E-04  1.39379683094309E-01
 cg2d: Sum(rhs),rhsMax =  -5.76794464798579E-04  1.39374594518961E-01
 cg2d: Sum(rhs),rhsMax =  -5.75891999058721E-04  1.39369511296804E-01
 cg2d: Sum(rhs),rhsMax =  -5.74989677788692E-04  1.39364433436167E-01
 cg2d: Sum(rhs),rhsMax =  -5.74087508516017E-04  1.39359360945363E-01
 cg2d: Sum(rhs),rhsMax =  -5.73185498917946E-04  1.39354293832684E-01
 cg2d: Sum(rhs),rhsMax =  -5.72283656648200E-04  1.39349232106406E-01
 cg2d: Sum(rhs),rhsMax =  -5.71381989600505E-04  1.39344175774784E-01
 cg2d: Sum(rhs),rhsMax =  -5.70480505651269E-04  1.39339124846058E-01
 cg2d: Sum(rhs),rhsMax =  -5.69579212649793E-04  1.39334079328444E-01
 cg2d: Sum(rhs),rhsMax =  -5.68678118611631E-04  1.39329039230147E-01
 cg2d: Sum(rhs),rhsMax =  -5.67777231614094E-04  1.39324004559347E-01
 cg2d: Sum(rhs),rhsMax =  -5.66876559733302E-04  1.39318975324208E-01
 cg2d: Sum(rhs),rhsMax =  -5.65976111109049E-04  1.39313951532875E-01
 cg2d: Sum(rhs),rhsMax =  -5.65075894008838E-04  1.39308933193475E-01
 cg2d: Sum(rhs),rhsMax =  -5.64175916673191E-04  1.39303920314117E-01
(PID.TID 0000.0001)      cg2d_init_res =   6.40470319792276E-04
(PID.TID 0000.0001)      cg2d_iters(min,last) =      -1      73
(PID.TID 0000.0001)      cg2d_last_res =   9.63164011599163E-08
(PID.TID 0000.0001) // =======================================================
(PID.TID 0000.0001) // Begin MONITOR dynamic field statistics
(PID.TID 0000.0001) // =======================================================
(PID.TID 0000.0001) %MON time_tsnumber                =                 15624
(PID.TID 0000.0001) %MON time_secondsf                =   1.8748800000000E+07
(PID.TID 0000.0001) %MON dynstat_eta_max              =   4.7889772016929E-02
(PID.TID 0000.0001) %MON dynstat_eta_min              =  -2.0035438998919E-02
(PID.TID 0000.0001) %MON dynstat_eta_mean             =   3.9231880290958E-07
(PID.TID 0000.0001) %MON dynstat_eta_sd               =   1.5326363300600E-02
(PID.TID 0000.0001) %MON dynstat_eta_del2             =   1.7987145128557E-05
(PID.TID 0000.0001) %MON dynstat_uvel_max             =   3.1250278822212E-02
(PID.TID 0000.0001) %MON dynstat_uvel_min             =  -1.6091585722315E-02
(PID.TID 0000.0001) %MON dynstat_uvel_mean            =   6.4782175450088E-08
(PID.TID 0000.0001) %MON dynstat_uvel_sd              =   6.1696596899104E-03
(PID.TID 0000.0001) %MON dynstat_uvel_del2            =   7.7267417796086E-06
(PID.TID 0000.0001) %MON dynstat_vvel_max             =   8.3764317917788E-02
(PID.TID 0000.0001) %MON dynstat_vvel_min             =  -3.2049174441891E-02
(PID.TID 0000.0001) %MON dynstat_vvel_mean            =  -2.7768747702125E-09
(PID.TID 0000.0001) %MON dynstat_vvel_sd              =   1.4709004373622E-02
(PID.TID 0000.0001) %MON dynstat_vvel_del2            =   7.4548155758845E-05
(PID.TID 0000.0001) %MON dynstat_wvel_max             =   1.0045432820243E-08
(PID.TID 0000.0001) %MON dynstat_wvel_min             =  -5.7476894510910E-09
(PID.TID 0000.0001) %MON dynstat_wvel_mean            =  -7.0339865487767E-22
(PID.TID 0000.0001) %MON dynstat_wvel_sd              =   3.8568452856265E-09
(PID.TID 0000.0001) %MON dynstat_wvel_del2            =   1.3599418304403E-12
(PID.TID 0000.0001) %MON dynstat_theta_max            =   2.0000000000000E+01
(PID.TID 0000.0001) %MON dynstat_theta_min            =   2.0000000000000E+01
(PID.TID 0000.0001) %MON dynstat_theta_mean           =   2.0000000000000E+01
(PID.TID 0000.0001) %MON dynstat_theta_sd             =   0.0000000000000E+00
(PID.TID 0000.0001) %MON dynstat_theta_del2           =   0.0000000000000E+00
(PID.TID 0000.0001) %MON dynstat_salt_max             =   3.0000000000000E+01
(PID.TID 0000.0001) %MON dynstat_salt_min             =   3.0000000000000E+01
(PID.TID 0000.0001) %MON dynstat_salt_mean            =   3.0000000000000E+01
(PID.TID 0000.0001) %MON dynstat_salt_sd              =   0.0000000000000E+00
(PID.TID 0000.0001) %MON dynstat_salt_del2            =   0.0000000000000E+00
(PID.TID 0000.0001) %MON trAdv_CFL_u_max              =   1.8750683158811E-03
(PID.TID 0000.0001) %MON trAdv_CFL_v_max              =   5.0260622824934E-03
(PID.TID 0000.0001) %MON trAdv_CFL_w_max              =   2.4105541006807E-09
(PID.TID 0000.0001) %MON advcfl_uvel_max              =   1.8750167293327E-03
(PID.TID 0000.0001) %MON advcfl_vvel_max              =   5.0258590750673E-03
(PID.TID 0000.0001) %MON advcfl_wvel_max              =   4.8218077537167E-09
(PID.TID 0000.0001) %MON advcfl_W_hf_max              =   0.0000000000000E+00
(PID.TID 0000.0001) %MON pe_b_mean                    =   2.3043436134456E-07
(PID.TID 0000.0001) %MON ke_max                       =   3.5058886893583E-03
(PID.TID 0000.0001) %MON ke_mean                      =   1.2508959259207E-04
(PID.TID 0000.0001) %MON ke_vol                       =   7.2000000000000E+15
(PID.TID 0000.0001) %MON vort_r_min                   =  -1.5265496580799E-06
(PID.TID 0000.0001) %MON vort_r_max                   =   2.2837569826281E-06
(PID.TID 0000.0001) %MON vort_a_mean                  =   1.0600000000000E-04
(PID.TID 0000.0001) %MON vort_a_sd                    =   3.5367081881904E-06
(PID.TID 0000.0001) %MON vort_p_mean                  =   1.1130000000000E-04
(PID.TID 0000.0001) %MON vort_p_sd                    =   4.1151169870180E-05
(PID.TID 0000.0001) %MON surfExpan_theta_mean         =  -1.4069380228755E-20
(PID.TID 0000.0001) %MON surfExpan_salt_mean          =  -2.1104937550673E-20
(PID.TID 0000.0001) // =======================================================
(PID.TID 0000.0001) // End MONITOR dynamic field statistics
(PID.TID 0000.0001) // =======================================================
 cg2d: Sum(rhs),rhsMax =  -5.63276187501074E-04  1.39298912902889E-01
 cg2d: Sum(rhs),rhsMax =  -5.62376714917135E-04  1.39293910967862E-01
 cg2d: Sum(rhs),rhsMax =  -5.61477507394446E-04  1.39288914517090E-01
 cg2d: Sum(rhs),rhsMax =  -5.60578573414474E-04  1.39283923558604E-01
 cg2d: Sum(rhs),rhsMax =  -5.59679921688996E-04  1.39278938100420E-01
 cg2d: Sum(rhs),rhsMax =  -5.58781560827126E-04  1.39273958150535E-01
 cg2d: Sum(rhs),rhsMax =  -5.57883499756687E-04  1.39268983716925E-01
 cg2d: Sum(rhs),rhsMax =  -5.56985747072023E-04  1.39264014807551E-01
 cg2d: Sum(rhs),rhsMax =  -5.56088311841855E-04  1.39259051430350E-01
 cg2d: Sum(rhs),rhsMax =  -5.55191202917700E-04  1.39254093593246E-01
 cg2d: Sum(rhs),rhsMax =  -5.54294429356142E-04  1.39249141304139E-01
 cg2d: Sum(rhs),rhsMax =  -5.53398000342344E-04  1.39244194570916E-01
 cg2d: Sum(rhs),rhsMax =  -5.52501924934145E-04  1.39239253401439E-01
 cg2d: Sum(rhs),rhsMax =  -5.51606212539934E-04  1.39234317803555E-01
 cg2d: Sum(rhs),rhsMax =  -5.50710872338398E-04  1.39229387785093E-01
 cg2d: Sum(rhs),rhsMax =  -5.49815913859635E-04  1.39224463353859E-01
 cg2d: Sum(rhs),rhsMax =  -5.48921346496698E-04  1.39219544517645E-01
 cg2d: Sum(rhs),rhsMax =  -5.48027179812703E-04  1.39214631284219E-01
 cg2d: Sum(rhs),rhsMax =  -5.47133423539979E-04  1.39209723661336E-01
 cg2d: Sum(rhs),rhsMax =  -5.46240087363207E-04  1.39204821656728E-01
 cg2d: Sum(rhs),rhsMax =  -5.45347180961865E-04  1.39199925278108E-01
 cg2d: Sum(rhs),rhsMax =  -5.44454714333532E-04  1.39195034533172E-01
 cg2d: Sum(rhs),rhsMax =  -5.43562697337180E-04  1.39190149429597E-01
 cg2d: Sum(rhs),rhsMax =  -5.42671140073470E-04  1.39185269975040E-01
 cg2d: Sum(rhs),rhsMax =  -5.41780052579266E-04  1.39180396177138E-01
 cg2d: Sum(rhs),rhsMax =  -5.40889445213252E-04  1.39175528043511E-01
 cg2d: Sum(rhs),rhsMax =  -5.39999328133556E-04  1.39170665581761E-01
 cg2d: Sum(rhs),rhsMax =  -5.39109711791520E-04  1.39165808799469E-01
 cg2d: Sum(rhs),rhsMax =  -5.38220606527995E-04  1.39160957704195E-01
 cg2d: Sum(rhs),rhsMax =  -5.37332022955074E-04  1.39156112303485E-01
 cg2d: Sum(rhs),rhsMax =  -5.36443971609405E-04  1.39151272604862E-01
 cg2d: Sum(rhs),rhsMax =  -5.35556463386598E-04  1.39146438615832E-01
 cg2d: Sum(rhs),rhsMax =  -5.34669508989730E-04  1.39141610343880E-01
 cg2d: Sum(rhs),rhsMax =  -5.33783119254088E-04  1.39136787796474E-01
 cg2d: Sum(rhs),rhsMax =  -5.32897305243813E-04  1.39131970981062E-01
 cg2d: Sum(rhs),rhsMax =  -5.32012077988198E-04  1.39127159905072E-01
 cg2d: Sum(rhs),rhsMax =  -5.31127448724356E-04  1.39122354575916E-01
 cg2d: Sum(rhs),rhsMax =  -5.30243428562353E-04  1.39117555000982E-01
 cg2d: Sum(rhs),rhsMax =  -5.29360029043474E-04  1.39112761187643E-01
 cg2d: Sum(rhs),rhsMax =  -5.28477261474340E-04  1.39107973143250E-01
 cg2d: Sum(rhs),rhsMax =  -5.27595137522639E-04  1.39103190875138E-01
 cg2d: Sum(rhs),rhsMax =  -5.26713668738199E-04  1.39098414390618E-01
 cg2d: Sum(rhs),rhsMax =  -5.25832866874747E-04  1.39093643696988E-01
 cg2d: Sum(rhs),rhsMax =  -5.24952743783223E-04  1.39088878801522E-01
 cg2d: Sum(rhs),rhsMax =  -5.24073311370386E-04  1.39084119711476E-01
 cg2d: Sum(rhs),rhsMax =  -5.23194581742768E-04  1.39079366434087E-01
 cg2d: Sum(rhs),rhsMax =  -5.22316566914400E-04  1.39074618976573E-01
 cg2d: Sum(rhs),rhsMax =  -5.21439279187240E-04  1.39069877346132E-01
 cg2d: Sum(rhs),rhsMax =  -5.20562730919526E-04  1.39065141549944E-01
 cg2d: Sum(rhs),rhsMax =  -5.19686934582980E-04  1.39060411595169E-01
 cg2d: Sum(rhs),rhsMax =  -5.18811902660404E-04  1.39055687488947E-01
 cg2d: Sum(rhs),rhsMax =  -5.17937647846679E-04  1.39050969238398E-01
 cg2d: Sum(rhs),rhsMax =  -5.17064182846316E-04  1.39046256850626E-01
 cg2d: Sum(rhs),rhsMax =  -5.16191520633284E-04  1.39041550332713E-01
 cg2d: Sum(rhs),rhsMax =  -5.15319674112444E-04  1.39036849691721E-01
 cg2d: Sum(rhs),rhsMax =  -5.14448656361179E-04  1.39032154934696E-01
 cg2d: Sum(rhs),rhsMax =  -5.13578480523904E-04  1.39027466068661E-01
 cg2d: Sum(rhs),rhsMax =  -5.12709159946446E-04  1.39022783100620E-01
 cg2d: Sum(rhs),rhsMax =  -5.11840708178299E-04  1.39018106037561E-01
 cg2d: Sum(rhs),rhsMax =  -5.10973138521489E-04  1.39013434886449E-01
 cg2d: Sum(rhs),rhsMax =  -5.10106464772741E-04  1.39008769654230E-01
 cg2d: Sum(rhs),rhsMax =  -5.09240700582834E-04  1.39004110347833E-01
 cg2d: Sum(rhs),rhsMax =  -5.08375859872602E-04  1.38999456974165E-01
 cg2d: Sum(rhs),rhsMax =  -5.07511956712951E-04  1.38994809540114E-01
 cg2d: Sum(rhs),rhsMax =  -5.06649005042766E-04  1.38990168052549E-01
 cg2d: Sum(rhs),rhsMax =  -5.05787019209587E-04  1.38985532518320E-01
 cg2d: Sum(rhs),rhsMax =  -5.04926013523387E-04  1.38980902944256E-01
 cg2d: Sum(rhs),rhsMax =  -5.04066002493296E-04  1.38976279337169E-01
 cg2d: Sum(rhs),rhsMax =  -5.03207000591866E-04  1.38971661703848E-01
 cg2d: Sum(rhs),rhsMax =  -5.02349022542693E-04  1.38967050051065E-01
 cg2d: Sum(rhs),rhsMax =  -5.01492083274256E-04  1.38962444385572E-01
 cg2d: Sum(rhs),rhsMax =  -5.00636197647715E-04  1.38957844714101E-01
(PID.TID 0000.0001)      cg2d_init_res =   6.37274328955112E-04
(PID.TID 0000.0001)      cg2d_iters(min,last) =      -1      73
(PID.TID 0000.0001)      cg2d_last_res =   9.85487084268371E-08
(PID.TID 0000.0001) // =======================================================
(PID.TID 0000.0001) // Begin MONITOR dynamic field statistics
(PID.TID 0000.0001) // =======================================================
(PID.TID 0000.0001) %MON time_tsnumber                =                 15696
(PID.TID 0000.0001) %MON time_secondsf                =   1.8835200000000E+07
(PID.TID 0000.0001) %MON dynstat_eta_max              =   4.7466346759127E-02
(PID.TID 0000.0001) %MON dynstat_eta_min              =  -2.0217060803789E-02
(PID.TID 0000.0001) %MON dynstat_eta_mean             =   3.4723123831056E-07
(PID.TID 0000.0001) %MON dynstat_eta_sd               =   1.5327877704011E-02
(PID.TID 0000.0001) %MON dynstat_eta_del2             =   1.7972254986416E-05
(PID.TID 0000.0001) %MON dynstat_uvel_max             =   3.1190219114013E-02
(PID.TID 0000.0001) %MON dynstat_uvel_min             =  -1.6014473054828E-02
(PID.TID 0000.0001) %MON dynstat_uvel_mean            =   4.6844874226729E-08
(PID.TID 0000.0001) %MON dynstat_uvel_sd              =   6.2000527106527E-03
(PID.TID 0000.0001) %MON dynstat_uvel_del2            =   7.7348130683956E-06
(PID.TID 0000.0001) %MON dynstat_vvel_max             =   8.3528727566391E-02
(PID.TID 0000.0001) %MON dynstat_vvel_min             =  -3.2108511749196E-02
(PID.TID 0000.0001) %MON dynstat_vvel_mean            =  -2.7027784987018E-09
(PID.TID 0000.0001) %MON dynstat_vvel_sd              =   1.4675253174844E-02
(PID.TID 0000.0001) %MON dynstat_vvel_del2            =   7.4430832860823E-05
(PID.TID 0000.0001) %MON dynstat_wvel_max             =   1.0090380413108E-08
(PID.TID 0000.0001) %MON dynstat_wvel_min             =  -5.4058587597683E-09
(PID.TID 0000.0001) %MON dynstat_wvel_mean            =   2.2435379934096E-21
(PID.TID 0000.0001) %MON dynstat_wvel_sd              =   3.8334806167366E-09
(PID.TID 0000.0001) %MON dynstat_wvel_del2            =   1.3566073532421E-12
(PID.TID 0000.0001) %MON dynstat_theta_max            =   2.0000000000000E+01
(PID.TID 0000.0001) %MON dynstat_theta_min            =   2.0000000000000E+01
(PID.TID 0000.0001) %MON dynstat_theta_mean           =   2.0000000000000E+01
(PID.TID 0000.0001) %MON dynstat_theta_sd             =   0.0000000000000E+00
(PID.TID 0000.0001) %MON dynstat_theta_del2           =   0.0000000000000E+00
(PID.TID 0000.0001) %MON dynstat_salt_max             =   3.0000000000000E+01
(PID.TID 0000.0001) %MON dynstat_salt_min             =   3.0000000000000E+01
(PID.TID 0000.0001) %MON dynstat_salt_mean            =   3.0000000000000E+01
(PID.TID 0000.0001) %MON dynstat_salt_sd              =   0.0000000000000E+00
(PID.TID 0000.0001) %MON dynstat_salt_del2            =   0.0000000000000E+00
(PID.TID 0000.0001) %MON trAdv_CFL_u_max              =   1.8714616094356E-03
(PID.TID 0000.0001) %MON trAdv_CFL_v_max              =   5.0119130086176E-03
(PID.TID 0000.0001) %MON trAdv_CFL_w_max              =   2.4216889747497E-09
(PID.TID 0000.0001) %MON advcfl_uvel_max              =   1.8714131468408E-03
(PID.TID 0000.0001) %MON advcfl_vvel_max              =   5.0117236539835E-03
(PID.TID 0000.0001) %MON advcfl_wvel_max              =   4.8433825982916E-09
(PID.TID 0000.0001) %MON advcfl_W_hf_max              =   0.0000000000000E+00
(PID.TID 0000.0001) %MON pe_b_mean                    =   2.3047990216412E-07
(PID.TID 0000.0001) %MON ke_max                       =   3.4864633542748E-03
(PID.TID 0000.0001) %MON ke_mean                      =   1.2478682377006E-04
(PID.TID 0000.0001) %MON ke_vol                       =   7.2000000000000E+15
(PID.TID 0000.0001) %MON vort_r_min                   =  -1.5243653900110E-06
(PID.TID 0000.0001) %MON vort_r_max                   =   2.2782046749925E-06
(PID.TID 0000.0001) %MON vort_a_mean                  =   1.0600000000000E-04
(PID.TID 0000.0001) %MON vort_a_sd                    =   3.5366564434259E-06
(PID.TID 0000.0001) %MON vort_p_mean                  =   1.1130000000000E-04
(PID.TID 0000.0001) %MON vort_p_sd                    =   4.1151168808806E-05
(PID.TID 0000.0001) %MON surfExpan_theta_mean         =   4.4868484236657E-20
(PID.TID 0000.0001) %MON surfExpan_salt_mean          =   6.7303871118282E-20
(PID.TID 0000.0001) // =======================================================
(PID.TID 0000.0001) // End MONITOR dynamic field statistics
(PID.TID 0000.0001) // =======================================================
 cg2d: Sum(rhs),rhsMax =  -4.99781380765602E-04  1.38953251043365E-01
 cg2d: Sum(rhs),rhsMax =  -4.98927647739586E-04  1.38948663380056E-01
 cg2d: Sum(rhs),rhsMax =  -4.98075014069563E-04  1.38944081730848E-01
 cg2d: Sum(rhs),rhsMax =  -4.97223495083784E-04  1.38939506102395E-01
 cg2d: Sum(rhs),rhsMax =  -4.96373106425066E-04  1.38934936501330E-01
 cg2d: Sum(rhs),rhsMax =  -4.95523863817082E-04  1.38930372934270E-01
 cg2d: Sum(rhs),rhsMax =  -4.94675783038057E-04  1.38925815407807E-01
 cg2d: Sum(rhs),rhsMax =  -4.93828880095564E-04  1.38921263928518E-01
 cg2d: Sum(rhs),rhsMax =  -4.92983171162926E-04  1.38916718502958E-01
 cg2d: Sum(rhs),rhsMax =  -4.92138672385399E-04  1.38912179137663E-01
 cg2d: Sum(rhs),rhsMax =  -4.91295400074212E-04  1.38907645839149E-01
 cg2d: Sum(rhs),rhsMax =  -4.90453370973940E-04  1.38903118613913E-01
 cg2d: Sum(rhs),rhsMax =  -4.89612601540105E-04  1.38898597468430E-01
 cg2d: Sum(rhs),rhsMax =  -4.88773108503765E-04  1.38894082409160E-01
 cg2d: Sum(rhs),rhsMax =  -4.87934908958628E-04  1.38889573442538E-01
 cg2d: Sum(rhs),rhsMax =  -4.87098019821222E-04  1.38885070574982E-01
 cg2d: Sum(rhs),rhsMax =  -4.86262458331734E-04  1.38880573812890E-01
 cg2d: Sum(rhs),rhsMax =  -4.85428241973511E-04  1.38876083162640E-01
 cg2d: Sum(rhs),rhsMax =  -4.84595388022183E-04  1.38871598630591E-01
 cg2d: Sum(rhs),rhsMax =  -4.83763914151690E-04  1.38867120223080E-01
 cg2d: Sum(rhs),rhsMax =  -4.82933838235972E-04  1.38862647946426E-01
 cg2d: Sum(rhs),rhsMax =  -4.82105178092100E-04  1.38858181806929E-01
 cg2d: Sum(rhs),rhsMax =  -4.81277951771157E-04  1.38853721810868E-01
 cg2d: Sum(rhs),rhsMax =  -4.80452177584494E-04  1.38849267964500E-01
 cg2d: Sum(rhs),rhsMax =  -4.79627873809948E-04  1.38844820274066E-01
 cg2d: Sum(rhs),rhsMax =  -4.78805058955180E-04  1.38840378745785E-01
 cg2d: Sum(rhs),rhsMax =  -4.77983751650963E-04  1.38835943385858E-01
 cg2d: Sum(rhs),rhsMax =  -4.77163970696992E-04  1.38831514200463E-01
 cg2d: Sum(rhs),rhsMax =  -4.76345735175043E-04  1.38827091195761E-01
 cg2d: Sum(rhs),rhsMax =  -4.75529064047329E-04  1.38822674377891E-01
 cg2d: Sum(rhs),rhsMax =  -4.74713976639196E-04  1.38818263752974E-01
 cg2d: Sum(rhs),rhsMax =  -4.73900492435267E-04  1.38813859327110E-01
 cg2d: Sum(rhs),rhsMax =  -4.73088630847673E-04  1.38809461106379E-01
 cg2d: Sum(rhs),rhsMax =  -4.72278411836476E-04  1.38805069096841E-01
 cg2d: Sum(rhs),rhsMax =  -4.71469855123678E-04  1.38800683304537E-01
 cg2d: Sum(rhs),rhsMax =  -4.70662980819358E-04  1.38796303735487E-01
 cg2d: Sum(rhs),rhsMax =  -4.69857809126005E-04  1.38791930395692E-01
 cg2d: Sum(rhs),rhsMax =  -4.69054360432869E-04  1.38787563291132E-01
 cg2d: Sum(rhs),rhsMax =  -4.68252655346339E-04  1.38783202427768E-01
 cg2d: Sum(rhs),rhsMax =  -4.67452714574445E-04  1.38778847811540E-01
 cg2d: Sum(rhs),rhsMax =  -4.66654558967296E-04  1.38774499448369E-01
 cg2d: Sum(rhs),rhsMax =  -4.65858209536471E-04  1.38770157344154E-01
 cg2d: Sum(rhs),rhsMax =  -4.65063687635932E-04  1.38765821504778E-01
 cg2d: Sum(rhs),rhsMax =  -4.64271014457498E-04  1.38761491936100E-01
 cg2d: Sum(rhs),rhsMax =  -4.63480211709917E-04  1.38757168643960E-01
 cg2d: Sum(rhs),rhsMax =  -4.62691301190881E-04  1.38752851634180E-01
 cg2d: Sum(rhs),rhsMax =  -4.62004173334226E-04  1.38748540646430E-01
 cg2d: Sum(rhs),rhsMax =  -4.61318883679707E-04  1.38744236223315E-01
 cg2d: Sum(rhs),rhsMax =  -4.60635595625654E-04  1.38739938090127E-01
 cg2d: Sum(rhs),rhsMax =  -4.59954276812911E-04  1.38735646263678E-01
 cg2d: Sum(rhs),rhsMax =  -4.59274940344785E-04  1.38731360749077E-01
 cg2d: Sum(rhs),rhsMax =  -4.58597606263392E-04  1.38727081552160E-01
 cg2d: Sum(rhs),rhsMax =  -4.57922298420963E-04  1.38722808678291E-01
 cg2d: Sum(rhs),rhsMax =  -4.57249041617792E-04  1.38718542132605E-01
 cg2d: Sum(rhs),rhsMax =  -4.56577859461011E-04  1.38714281920438E-01
 cg2d: Sum(rhs),rhsMax =  -4.55908774162397E-04  1.38710028047417E-01
 cg2d: Sum(rhs),rhsMax =  -4.55241807136677E-04  1.38705780519327E-01
 cg2d: Sum(rhs),rhsMax =  -4.54576979966422E-04  1.38701539341944E-01
 cg2d: Sum(rhs),rhsMax =  -4.53914314764373E-04  1.38697304520944E-01
 cg2d: Sum(rhs),rhsMax =  -4.53253834048891E-04  1.38693076061878E-01
 cg2d: Sum(rhs),rhsMax =  -4.52595560857491E-04  1.38688853970197E-01
 cg2d: Sum(rhs),rhsMax =  -4.51939518314978E-04  1.38684638251309E-01
 cg2d: Sum(rhs),rhsMax =  -4.51285729647052E-04  1.38680428910611E-01
 cg2d: Sum(rhs),rhsMax =  -4.50634218237291E-04  1.38676225953525E-01
 cg2d: Sum(rhs),rhsMax =  -4.49985007499846E-04  1.38672029385489E-01
 cg2d: Sum(rhs),rhsMax =  -4.49338120867142E-04  1.38667839211950E-01
 cg2d: Sum(rhs),rhsMax =  -4.48693582067072E-04  1.38663655438340E-01
 cg2d: Sum(rhs),rhsMax =  -4.48051415006905E-04  1.38659478070066E-01
 cg2d: Sum(rhs),rhsMax =  -4.47411643828384E-04  1.38655307112501E-01
 cg2d: Sum(rhs),rhsMax =  -4.46774292683945E-04  1.38651142570984E-01
 cg2d: Sum(rhs),rhsMax =  -4.46139386158406E-04  1.38646984450824E-01
 cg2d: Sum(rhs),rhsMax =  -4.45506948800691E-04  1.38642832757306E-01
(PID.TID 0000.0001)      cg2d_init_res =   6.33897057827630E-04
(PID.TID 0000.0001)      cg2d_iters(min,last) =      -1      74
(PID.TID 0000.0001)      cg2d_last_res =   9.73516220460887E-08
(PID.TID 0000.0001) // =======================================================
(PID.TID 0000.0001) // Begin MONITOR dynamic field statistics
(PID.TID 0000.0001) // =======================================================
(PID.TID 0000.0001) %MON time_tsnumber                =                 15768
(PID.TID 0000.0001) %MON time_secondsf                =   1.8921600000000E+07
(PID.TID 0000.0001) %MON dynstat_eta_max              =   4.7056356526976E-02
(PID.TID 0000.0001) %MON dynstat_eta_min              =  -2.0407605090417E-02
(PID.TID 0000.0001) %MON dynstat_eta_mean             =   3.0838582054029E-07
(PID.TID 0000.0001) %MON dynstat_eta_sd               =   1.5354721772359E-02
(PID.TID 0000.0001) %MON dynstat_eta_del2             =   1.7956361891073E-05
(PID.TID 0000.0001) %MON dynstat_uvel_max             =   3.1134236555130E-02
(PID.TID 0000.0001) %MON dynstat_uvel_min             =  -1.5944152582818E-02
(PID.TID 0000.0001) %MON dynstat_uvel_mean            =   2.8505205238839E-08
(PID.TID 0000.0001) %MON dynstat_uvel_sd              =   6.2359745584316E-03
(PID.TID 0000.0001) %MON dynstat_uvel_del2            =   7.7465040331270E-06
(PID.TID 0000.0001) %MON dynstat_vvel_max             =   8.3310735994941E-02
(PID.TID 0000.0001) %MON dynstat_vvel_min             =  -3.2148722545046E-02
(PID.TID 0000.0001) %MON dynstat_vvel_mean            =  -2.5324055853424E-09
(PID.TID 0000.0001) %MON dynstat_vvel_sd              =   1.4644319597744E-02
(PID.TID 0000.0001) %MON dynstat_vvel_del2            =   7.4318315043916E-05
(PID.TID 0000.0001) %MON dynstat_wvel_max             =   1.0124812563672E-08
(PID.TID 0000.0001) %MON dynstat_wvel_min             =  -5.0344739947468E-09
(PID.TID 0000.0001) %MON dynstat_wvel_mean            =  -4.1180096054126E-21
(PID.TID 0000.0001) %MON dynstat_wvel_sd              =   3.8138955868316E-09
(PID.TID 0000.0001) %MON dynstat_wvel_del2            =   1.3507413135355E-12
(PID.TID 0000.0001) %MON dynstat_theta_max            =   2.0000000000000E+01
(PID.TID 0000.0001) %MON dynstat_theta_min            =   2.0000000000000E+01
(PID.TID 0000.0001) %MON dynstat_theta_mean           =   2.0000000000000E+01
(PID.TID 0000.0001) %MON dynstat_theta_sd             =   0.0000000000000E+00
(PID.TID 0000.0001) %MON dynstat_theta_del2           =   0.0000000000000E+00
(PID.TID 0000.0001) %MON dynstat_salt_max             =   3.0000000000000E+01
(PID.TID 0000.0001) %MON dynstat_salt_min             =   3.0000000000000E+01
(PID.TID 0000.0001) %MON dynstat_salt_mean            =   3.0000000000000E+01
(PID.TID 0000.0001) %MON dynstat_salt_sd              =   0.0000000000000E+00
(PID.TID 0000.0001) %MON dynstat_salt_del2            =   0.0000000000000E+00
(PID.TID 0000.0001) %MON trAdv_CFL_u_max              =   1.8680990034781E-03
(PID.TID 0000.0001) %MON trAdv_CFL_v_max              =   4.9988180989943E-03
(PID.TID 0000.0001) %MON trAdv_CFL_w_max              =   2.4299938576471E-09
(PID.TID 0000.0001) %MON advcfl_uvel_max              =   1.8680541933078E-03
(PID.TID 0000.0001) %MON advcfl_vvel_max              =   4.9986441596965E-03
(PID.TID 0000.0001) %MON advcfl_wvel_max              =   4.8599100305626E-09
(PID.TID 0000.0001) %MON advcfl_W_hf_max              =   0.0000000000000E+00
(PID.TID 0000.0001) %MON pe_b_mean                    =   2.3128789866643E-07
(PID.TID 0000.0001) %MON ke_max                       =   3.4685008455446E-03
(PID.TID 0000.0001) %MON ke_mean                      =   1.2456054196109E-04
(PID.TID 0000.0001) %MON ke_vol                       =   7.2000000000000E+15
(PID.TID 0000.0001) %MON vort_r_min                   =  -1.5220230845361E-06
(PID.TID 0000.0001) %MON vort_r_max                   =   2.2733010312051E-06
(PID.TID 0000.0001) %MON vort_a_mean                  =   1.0600000000000E-04
(PID.TID 0000.0001) %MON vort_a_sd                    =   3.5366084380616E-06
(PID.TID 0000.0001) %MON vort_p_mean                  =   1.1130000000000E-04
(PID.TID 0000.0001) %MON vort_p_sd                    =   4.1151171065650E-05
(PID.TID 0000.0001) %MON surfExpan_theta_mean         =  -8.2355374371919E-20
(PID.TID 0000.0001) %MON surfExpan_salt_mean          =  -1.2353369438500E-19
(PID.TID 0000.0001) // =======================================================
(PID.TID 0000.0001) // End MONITOR dynamic field statistics
(PID.TID 0000.0001) // =======================================================
 cg2d: Sum(rhs),rhsMax =  -4.44877005286145E-04  1.38638687495695E-01
 cg2d: Sum(rhs),rhsMax =  -4.44249580710354E-04  1.38634548671239E-01
 cg2d: Sum(rhs),rhsMax =  -4.43624700223956E-04  1.38630416289171E-01
 cg2d: Sum(rhs),rhsMax =  -4.43002389027712E-04  1.38626290354707E-01
 cg2d: Sum(rhs),rhsMax =  -4.42382672811407E-04  1.38622170873046E-01
 cg2d: Sum(rhs),rhsMax =  -4.41765577350066E-04  1.38618057849365E-01
 cg2d: Sum(rhs),rhsMax =  -4.41151128462510E-04  1.38613951288823E-01
 cg2d: Sum(rhs),rhsMax =  -4.40539352450748E-04  1.38609851196554E-01
 cg2d: Sum(rhs),rhsMax =  -4.39930275580418E-04  1.38605757577675E-01
 cg2d: Sum(rhs),rhsMax =  -4.39323924579719E-04  1.38601670437276E-01
 cg2d: Sum(rhs),rhsMax =  -4.38720326180182E-04  1.38597589780429E-01
 cg2d: Sum(rhs),rhsMax =  -4.38119507581968E-04  1.38593515612187E-01
 cg2d: Sum(rhs),rhsMax =  -4.37521496038048E-04  1.38589447937580E-01
 cg2d: Sum(rhs),rhsMax =  -4.36926319253315E-04  1.38585386761619E-01
 cg2d: Sum(rhs),rhsMax =  -4.36334005058285E-04  1.38581332089297E-01
 cg2d: Sum(rhs),rhsMax =  -4.35744581618703E-04  1.38577283925584E-01
 cg2d: Sum(rhs),rhsMax =  -4.35158077437468E-04  1.38573242275432E-01
 cg2d: Sum(rhs),rhsMax =  -4.34574521368008E-04  1.38569207143772E-01
 cg2d: Sum(rhs),rhsMax =  -4.33993942396849E-04  1.38565178535514E-01
 cg2d: Sum(rhs),rhsMax =  -4.33416369986628E-04  1.38561156455549E-01
 cg2d: Sum(rhs),rhsMax =  -4.32841833976294E-04  1.38557140908744E-01
 cg2d: Sum(rhs),rhsMax =  -4.32270364536655E-04  1.38553131899950E-01
 cg2d: Sum(rhs),rhsMax =  -4.31701992318489E-04  1.38549129433993E-01
 cg2d: Sum(rhs),rhsMax =  -4.31136748269331E-04  1.38545133515682E-01
 cg2d: Sum(rhs),rhsMax =  -4.30574663787714E-04  1.38541144149805E-01
 cg2d: Sum(rhs),rhsMax =  -4.30015770905478E-04  1.38537161341129E-01
 cg2d: Sum(rhs),rhsMax =  -4.29460102000409E-04  1.38533185094399E-01
 cg2d: Sum(rhs),rhsMax =  -4.28907689916224E-04  1.38529215414343E-01
 cg2d: Sum(rhs),rhsMax =  -4.28358568197865E-04  1.38525252305666E-01
 cg2d: Sum(rhs),rhsMax =  -4.27812770895952E-04  1.38521295773054E-01
 cg2d: Sum(rhs),rhsMax =  -4.27175386194616E-04  1.38517346075099E-01
 cg2d: Sum(rhs),rhsMax =  -4.26541725658269E-04  1.38513402710139E-01
 cg2d: Sum(rhs),rhsMax =  -4.25911689235828E-04  1.38509465935240E-01
 cg2d: Sum(rhs),rhsMax =  -4.25285376600163E-04  1.38505535755947E-01
 cg2d: Sum(rhs),rhsMax =  -4.24662836172605E-04  1.38501612174871E-01
 cg2d: Sum(rhs),rhsMax =  -4.24044118296820E-04  1.38497695197021E-01
 cg2d: Sum(rhs),rhsMax =  -4.23429272269672E-04  1.38493784827231E-01
 cg2d: Sum(rhs),rhsMax =  -4.22818348880675E-04  1.38489881070571E-01
 cg2d: Sum(rhs),rhsMax =  -4.22211402129794E-04  1.38485983931733E-01
 cg2d: Sum(rhs),rhsMax =  -4.21608488884621E-04  1.38482093415062E-01
 cg2d: Sum(rhs),rhsMax =  -4.21009668178087E-04  1.38478209524717E-01
 cg2d: Sum(rhs),rhsMax =  -4.20415000692690E-04  1.38474332264862E-01
 cg2d: Sum(rhs),rhsMax =  -4.19824548579794E-04  1.38470461639778E-01
 cg2d: Sum(rhs),rhsMax =  -4.19238375445585E-04  1.38466597653871E-01
 cg2d: Sum(rhs),rhsMax =  -4.18656547224071E-04  1.38462740311628E-01
 cg2d: Sum(rhs),rhsMax =  -4.18079131963587E-04  1.38458889617552E-01
 cg2d: Sum(rhs),rhsMax =  -4.17506200600905E-04  1.38455045576094E-01
 cg2d: Sum(rhs),rhsMax =  -4.16937826990493E-04  1.38451208191629E-01
 cg2d: Sum(rhs),rhsMax =  -4.16374088042080E-04  1.38447377468446E-01
 cg2d: Sum(rhs),rhsMax =  -4.15815063658599E-04  1.38443553410779E-01
 cg2d: Sum(rhs),rhsMax =  -4.15260837243185E-04  1.38439736022824E-01
 cg2d: Sum(rhs),rhsMax =  -4.14711495602652E-04  1.38435925308766E-01
 cg2d: Sum(rhs),rhsMax =  -4.14167129084134E-04  1.38432121272791E-01
 cg2d: Sum(rhs),rhsMax =  -4.13627832159489E-04  1.38428323919085E-01
 cg2d: Sum(rhs),rhsMax =  -4.13093703302125E-04  1.38424533251828E-01
 cg2d: Sum(rhs),rhsMax =  -4.12564845550272E-04  1.38420749275189E-01
 cg2d: Sum(rhs),rhsMax =  -4.12041366679116E-04  1.38416971993316E-01
 cg2d: Sum(rhs),rhsMax =  -4.11523379461888E-04  1.38413201410329E-01
 cg2d: Sum(rhs),rhsMax =  -4.11011002052422E-04  1.38409437530322E-01
 cg2d: Sum(rhs),rhsMax =  -4.10504358399285E-04  1.38405680357363E-01
 cg2d: Sum(rhs),rhsMax =  -4.10003578217105E-04  1.38401929895491E-01
 cg2d: Sum(rhs),rhsMax =  -4.09508797860688E-04  1.38398186148728E-01
 cg2d: Sum(rhs),rhsMax =  -4.09020160464057E-04  1.38394449121072E-01
 cg2d: Sum(rhs),rhsMax =  -4.08537815965016E-04  1.38390718816505E-01
 cg2d: Sum(rhs),rhsMax =  -4.08061922284558E-04  1.38386995238992E-01
 cg2d: Sum(rhs),rhsMax =  -4.07592644944201E-04  1.38383278392475E-01
 cg2d: Sum(rhs),rhsMax =  -4.07130157964033E-04  1.38379568280881E-01
 cg2d: Sum(rhs),rhsMax =  -4.06674644209250E-04  1.38375864908115E-01
 cg2d: Sum(rhs),rhsMax =  -4.06226295556768E-04  1.38372168278061E-01
 cg2d: Sum(rhs),rhsMax =  -4.05785313696981E-04  1.38368478394580E-01
 cg2d: Sum(rhs),rhsMax =  -4.05351910114024E-04  1.38364795261514E-01
 cg2d: Sum(rhs),rhsMax =  -4.04926306597624E-04  1.38361118882682E-01
(PID.TID 0000.0001)      cg2d_init_res =   6.30391572246419E-04
(PID.TID 0000.0001)      cg2d_iters(min,last) =      -1      73
(PID.TID 0000.0001)      cg2d_last_res =   8.71826512837684E-08
(PID.TID 0000.0001) // =======================================================
(PID.TID 0000.0001) // Begin MONITOR dynamic field statistics
(PID.TID 0000.0001) // =======================================================
(PID.TID 0000.0001) %MON time_tsnumber                =                 15840
(PID.TID 0000.0001) %MON time_secondsf                =   1.9008000000000E+07
(PID.TID 0000.0001) %MON dynstat_eta_max              =   4.6664609155176E-02
(PID.TID 0000.0001) %MON dynstat_eta_min              =  -2.0603923918053E-02
(PID.TID 0000.0001) %MON dynstat_eta_mean             =   2.7983398458081E-07
(PID.TID 0000.0001) %MON dynstat_eta_sd               =   1.5405866524027E-02
(PID.TID 0000.0001) %MON dynstat_eta_del2             =   1.7939726517412E-05
(PID.TID 0000.0001) %MON dynstat_uvel_max             =   3.1082922023238E-02
(PID.TID 0000.0001) %MON dynstat_uvel_min             =  -1.5881132391507E-02
(PID.TID 0000.0001) %MON dynstat_uvel_mean            =   1.0010054773516E-08
(PID.TID 0000.0001) %MON dynstat_uvel_sd              =   6.2767071003196E-03
(PID.TID 0000.0001) %MON dynstat_uvel_del2            =   7.7615760363664E-06
(PID.TID 0000.0001) %MON dynstat_vvel_max             =   8.3112063966012E-02
(PID.TID 0000.0001) %MON dynstat_vvel_min             =  -3.2170324599043E-02
(PID.TID 0000.0001) %MON dynstat_vvel_mean            =  -2.2622305822488E-09
(PID.TID 0000.0001) %MON dynstat_vvel_sd              =   1.4616506580382E-02
(PID.TID 0000.0001) %MON dynstat_vvel_del2            =   7.4212065454825E-05
(PID.TID 0000.0001) %MON dynstat_wvel_max             =   1.0105493261071E-08
(PID.TID 0000.0001) %MON dynstat_wvel_min             =  -4.6743939910084E-09
(PID.TID 0000.0001) %MON dynstat_wvel_mean            =  -2.1165892071117E-21
(PID.TID 0000.0001) %MON dynstat_wvel_sd              =   3.7980516747555E-09
(PID.TID 0000.0001) %MON dynstat_wvel_del2            =   1.3444530166494E-12
(PID.TID 0000.0001) %MON dynstat_theta_max            =   2.0000000000000E+01
(PID.TID 0000.0001) %MON dynstat_theta_min            =   2.0000000000000E+01
(PID.TID 0000.0001) %MON dynstat_theta_mean           =   2.0000000000000E+01
(PID.TID 0000.0001) %MON dynstat_theta_sd             =   0.0000000000000E+00
(PID.TID 0000.0001) %MON dynstat_theta_del2           =   0.0000000000000E+00
(PID.TID 0000.0001) %MON dynstat_salt_max             =   3.0000000000000E+01
(PID.TID 0000.0001) %MON dynstat_salt_min             =   3.0000000000000E+01
(PID.TID 0000.0001) %MON dynstat_salt_mean            =   3.0000000000000E+01
(PID.TID 0000.0001) %MON dynstat_salt_sd              =   0.0000000000000E+00
(PID.TID 0000.0001) %MON dynstat_salt_del2            =   0.0000000000000E+00
(PID.TID 0000.0001) %MON trAdv_CFL_u_max              =   1.8650160227338E-03
(PID.TID 0000.0001) %MON trAdv_CFL_v_max              =   4.9868810551758E-03
(PID.TID 0000.0001) %MON trAdv_CFL_w_max              =   2.4253948893558E-09
(PID.TID 0000.0001) %MON advcfl_uvel_max              =   1.8649753213943E-03
(PID.TID 0000.0001) %MON advcfl_vvel_max              =   4.9867238379607E-03
(PID.TID 0000.0001) %MON advcfl_wvel_max              =   4.8506367653143E-09
(PID.TID 0000.0001) %MON advcfl_W_hf_max              =   0.0000000000000E+00
(PID.TID 0000.0001) %MON pe_b_mean                    =   2.3283124968920E-07
(PID.TID 0000.0001) %MON ke_max                       =   3.4521327927225E-03
(PID.TID 0000.0001) %MON ke_mean                      =   1.2441099734685E-04
(PID.TID 0000.0001) %MON ke_vol                       =   7.2000000000000E+15
(PID.TID 0000.0001) %MON vort_r_min                   =  -1.5195460934892E-06
(PID.TID 0000.0001) %MON vort_r_max                   =   2.2690732996552E-06
(PID.TID 0000.0001) %MON vort_a_mean                  =   1.0600000000000E-04
(PID.TID 0000.0001) %MON vort_a_sd                    =   3.5365647097047E-06
(PID.TID 0000.0001) %MON vort_p_mean                  =   1.1130000000000E-04
(PID.TID 0000.0001) %MON vort_p_sd                    =   4.1151175988132E-05
(PID.TID 0000.0001) %MON surfExpan_theta_mean         =  -4.2328293956315E-20
(PID.TID 0000.0001) %MON surfExpan_salt_mean          =  -6.3495362054608E-20
(PID.TID 0000.0001) // =======================================================
(PID.TID 0000.0001) // End MONITOR dynamic field statistics
(PID.TID 0000.0001) // =======================================================
 cg2d: Sum(rhs),rhsMax =  -4.04508736040593E-04  1.38357449261885E-01
 cg2d: Sum(rhs),rhsMax =  -4.04099441555871E-04  1.38353786402900E-01
 cg2d: Sum(rhs),rhsMax =  -4.03698678048788E-04  1.38350130309487E-01
 cg2d: Sum(rhs),rhsMax =  -4.03306711151349E-04  1.38346480985384E-01
 cg2d: Sum(rhs),rhsMax =  -4.02837301622700E-04  1.38342838113228E-01
 cg2d: Sum(rhs),rhsMax =  -4.02379720908085E-04  1.38339202363912E-01
 cg2d: Sum(rhs),rhsMax =  -4.01934469333315E-04  1.38335573378578E-01
 cg2d: Sum(rhs),rhsMax =  -4.01501880354075E-04  1.38331951175895E-01
 cg2d: Sum(rhs),rhsMax =  -4.01082325160217E-04  1.38328335760426E-01
 cg2d: Sum(rhs),rhsMax =  -4.00676187151548E-04  1.38324727136065E-01
 cg2d: Sum(rhs),rhsMax =  -4.00283864375666E-04  1.38321125307405E-01
 cg2d: Sum(rhs),rhsMax =  -3.99514818125197E-04  1.38317530654653E-01
 cg2d: Sum(rhs),rhsMax =  -3.98781262896761E-04  1.38313942478727E-01
 cg2d: Sum(rhs),rhsMax =  -3.98083176465333E-04  1.38310361060976E-01
 cg2d: Sum(rhs),rhsMax =  -3.97420378224961E-04  1.38306786448596E-01
 cg2d: Sum(rhs),rhsMax =  -3.96792584273263E-04  1.38303218643915E-01
 cg2d: Sum(rhs),rhsMax =  -3.96199520869184E-04  1.38299657651730E-01
 cg2d: Sum(rhs),rhsMax =  -3.95640964923089E-04  1.38296103481773E-01
 cg2d: Sum(rhs),rhsMax =  -3.95116722011663E-04  1.38292556141174E-01
 cg2d: Sum(rhs),rhsMax =  -3.94626552726526E-04  1.38289015632556E-01
 cg2d: Sum(rhs),rhsMax =  -3.94170082714951E-04  1.38285481956149E-01
 cg2d: Sum(rhs),rhsMax =  -3.93746727753287E-04  1.38281955112155E-01
 cg2d: Sum(rhs),rhsMax =  -3.93355656928073E-04  1.38278435101921E-01
 cg2d: Sum(rhs),rhsMax =  -3.92995788740430E-04  1.38274921928149E-01
 cg2d: Sum(rhs),rhsMax =  -3.92665811677175E-04  1.38271415594591E-01
 cg2d: Sum(rhs),rhsMax =  -3.92364209598221E-04  1.38267916105603E-01
 cg2d: Sum(rhs),rhsMax =  -3.92055843415177E-04  1.38264423613590E-01
 cg2d: Sum(rhs),rhsMax =  -3.91773611344352E-04  1.38260937826282E-01
 cg2d: Sum(rhs),rhsMax =  -3.91515365683300E-04  1.38257458894393E-01
 cg2d: Sum(rhs),rhsMax =  -3.91278749363289E-04  1.38253986822302E-01
 cg2d: Sum(rhs),rhsMax =  -3.91061267693052E-04  1.38250521612938E-01
 cg2d: Sum(rhs),rhsMax =  -3.90860279895420E-04  1.38247063269728E-01
 cg2d: Sum(rhs),rhsMax =  -3.90673011514287E-04  1.38243611796242E-01
 cg2d: Sum(rhs),rhsMax =  -3.90496573084078E-04  1.38240167195707E-01
 cg2d: Sum(rhs),rhsMax =  -3.90327983067410E-04  1.38236729471083E-01
 cg2d: Sum(rhs),rhsMax =  -3.90164193916898E-04  1.38233298625345E-01
 cg2d: Sum(rhs),rhsMax =  -3.90002118815930E-04  1.38229874661607E-01
 cg2d: Sum(rhs),rhsMax =  -3.89838660532352E-04  1.38226457583083E-01
 cg2d: Sum(rhs),rhsMax =  -3.89670739613300E-04  1.38223047393018E-01
 cg2d: Sum(rhs),rhsMax =  -3.89495321816435E-04  1.38219644094601E-01
 cg2d: Sum(rhs),rhsMax =  -3.89309443765205E-04  1.38216247690953E-01
 cg2d: Sum(rhs),rhsMax =  -3.89110237404467E-04  1.38212858185126E-01
 cg2d: Sum(rhs),rhsMax =  -3.88894951307441E-04  1.38209475580118E-01
 cg2d: Sum(rhs),rhsMax =  -3.88660970652620E-04  1.38206099878887E-01
 cg2d: Sum(rhs),rhsMax =  -3.88405834541969E-04  1.38202731084363E-01
 cg2d: Sum(rhs),rhsMax =  -3.88127250303260E-04  1.38199369199451E-01
 cg2d: Sum(rhs),rhsMax =  -3.87823104914806E-04  1.38196014227040E-01
 cg2d: Sum(rhs),rhsMax =  -3.87491473605094E-04  1.38192666169998E-01
 cg2d: Sum(rhs),rhsMax =  -3.87130624801947E-04  1.38189325031171E-01
 cg2d: Sum(rhs),rhsMax =  -3.86739022876136E-04  1.38185990813379E-01
 cg2d: Sum(rhs),rhsMax =  -3.86315327235096E-04  1.38182663519412E-01
 cg2d: Sum(rhs),rhsMax =  -3.85858389470377E-04  1.38179343152032E-01
 cg2d: Sum(rhs),rhsMax =  -3.85406382466250E-04  1.38176029557093E-01
 cg2d: Sum(rhs),rhsMax =  -3.84920911012407E-04  1.38172723046261E-01
 cg2d: Sum(rhs),rhsMax =  -3.84401419116751E-04  1.38169423471717E-01
 cg2d: Sum(rhs),rhsMax =  -3.83847558302056E-04  1.38166130834135E-01
 cg2d: Sum(rhs),rhsMax =  -3.83259114650003E-04  1.38162845137520E-01
 cg2d: Sum(rhs),rhsMax =  -3.82635998095649E-04  1.38159566384173E-01
 cg2d: Sum(rhs),rhsMax =  -3.81978228002982E-04  1.38156294576248E-01
 cg2d: Sum(rhs),rhsMax =  -3.81285923430804E-04  1.38153029716066E-01
 cg2d: Sum(rhs),rhsMax =  -3.80559296883687E-04  1.38149771806078E-01
 cg2d: Sum(rhs),rhsMax =  -3.79798649293957E-04  1.38146520848719E-01
 cg2d: Sum(rhs),rhsMax =  -3.79004363076510E-04  1.38143276846387E-01
 cg2d: Sum(rhs),rhsMax =  -3.78176894452789E-04  1.38140039801476E-01
 cg2d: Sum(rhs),rhsMax =  -3.77316762966371E-04  1.38136809716420E-01
 cg2d: Sum(rhs),rhsMax =  -3.76424541004408E-04  1.38133586593686E-01
 cg2d: Sum(rhs),rhsMax =  -3.75500843915222E-04  1.38130370435750E-01
 cg2d: Sum(rhs),rhsMax =  -3.74546321042567E-04  1.38127161245061E-01
 cg2d: Sum(rhs),rhsMax =  -3.74184134019256E-04  1.38123958972545E-01
 cg2d: Sum(rhs),rhsMax =  -3.73814505529225E-04  1.38120763598553E-01
 cg2d: Sum(rhs),rhsMax =  -3.73437863779786E-04  1.38117575241240E-01
 cg2d: Sum(rhs),rhsMax =  -3.73054652753039E-04  1.38114393860688E-01
(PID.TID 0000.0001)      cg2d_init_res =   6.26807810281724E-04
(PID.TID 0000.0001)      cg2d_iters(min,last) =      -1      73
(PID.TID 0000.0001)      cg2d_last_res =   9.23541617871354E-08
(PID.TID 0000.0001) // =======================================================
(PID.TID 0000.0001) // Begin MONITOR dynamic field statistics
(PID.TID 0000.0001) // =======================================================
(PID.TID 0000.0001) %MON time_tsnumber                =                 15912
(PID.TID 0000.0001) %MON time_secondsf                =   1.9094400000000E+07
(PID.TID 0000.0001) %MON dynstat_eta_max              =   4.6295569268891E-02
(PID.TID 0000.0001) %MON dynstat_eta_min              =  -2.0802841134119E-02
(PID.TID 0000.0001) %MON dynstat_eta_mean             =   2.5734625906721E-07
(PID.TID 0000.0001) %MON dynstat_eta_sd               =   1.5479877427291E-02
(PID.TID 0000.0001) %MON dynstat_eta_del2             =   1.7922607788797E-05
(PID.TID 0000.0001) %MON dynstat_uvel_max             =   3.1036776874049E-02
(PID.TID 0000.0001) %MON dynstat_uvel_min             =  -1.5825795707248E-02
(PID.TID 0000.0001) %MON dynstat_uvel_mean            =  -8.3243953536390E-09
(PID.TID 0000.0001) %MON dynstat_uvel_sd              =   6.3214654780426E-03
(PID.TID 0000.0001) %MON dynstat_uvel_del2            =   7.7797061043959E-06
(PID.TID 0000.0001) %MON dynstat_vvel_max             =   8.2934118223608E-02
(PID.TID 0000.0001) %MON dynstat_vvel_min             =  -3.2174069131714E-02
(PID.TID 0000.0001) %MON dynstat_vvel_mean            =  -1.9011015022187E-09
(PID.TID 0000.0001) %MON dynstat_vvel_sd              =   1.4592069344668E-02
(PID.TID 0000.0001) %MON dynstat_vvel_del2            =   7.4113419551689E-05
(PID.TID 0000.0001) %MON dynstat_wvel_max             =   1.0050563780119E-08
(PID.TID 0000.0001) %MON dynstat_wvel_min             =  -4.2837989499094E-09
(PID.TID 0000.0001) %MON dynstat_wvel_mean            =   4.6967443267931E-22
(PID.TID 0000.0001) %MON dynstat_wvel_sd              =   3.7857440757573E-09
(PID.TID 0000.0001) %MON dynstat_wvel_del2            =   1.3377444087081E-12
(PID.TID 0000.0001) %MON dynstat_theta_max            =   2.0000000000000E+01
(PID.TID 0000.0001) %MON dynstat_theta_min            =   2.0000000000000E+01
(PID.TID 0000.0001) %MON dynstat_theta_mean           =   2.0000000000000E+01
(PID.TID 0000.0001) %MON dynstat_theta_sd             =   0.0000000000000E+00
(PID.TID 0000.0001) %MON dynstat_theta_del2           =   0.0000000000000E+00
(PID.TID 0000.0001) %MON dynstat_salt_max             =   3.0000000000000E+01
(PID.TID 0000.0001) %MON dynstat_salt_min             =   3.0000000000000E+01
(PID.TID 0000.0001) %MON dynstat_salt_mean            =   3.0000000000000E+01
(PID.TID 0000.0001) %MON dynstat_salt_sd              =   0.0000000000000E+00
(PID.TID 0000.0001) %MON dynstat_salt_del2            =   0.0000000000000E+00
(PID.TID 0000.0001) %MON trAdv_CFL_u_max              =   1.8622428254298E-03
(PID.TID 0000.0001) %MON trAdv_CFL_v_max              =   4.9761865491221E-03
(PID.TID 0000.0001) %MON trAdv_CFL_w_max              =   2.4121852784217E-09
(PID.TID 0000.0001) %MON advcfl_uvel_max              =   1.8622066124429E-03
(PID.TID 0000.0001) %MON advcfl_vvel_max              =   4.9760470934165E-03
(PID.TID 0000.0001) %MON advcfl_wvel_max              =   4.8242706144571E-09
(PID.TID 0000.0001) %MON advcfl_W_hf_max              =   0.0000000000000E+00
(PID.TID 0000.0001) %MON pe_b_mean                    =   2.3507369973081E-07
(PID.TID 0000.0001) %MON ke_max                       =   3.4374647673769E-03
(PID.TID 0000.0001) %MON ke_mean                      =   1.2433729499530E-04
(PID.TID 0000.0001) %MON ke_vol                       =   7.2000000000000E+15
(PID.TID 0000.0001) %MON vort_r_min                   =  -1.5169582442888E-06
(PID.TID 0000.0001) %MON vort_r_max                   =   2.2655384831253E-06
(PID.TID 0000.0001) %MON vort_a_mean                  =   1.0600000000000E-04
(PID.TID 0000.0001) %MON vort_a_sd                    =   3.5365257159612E-06
(PID.TID 0000.0001) %MON vort_p_mean                  =   1.1130000000000E-04
(PID.TID 0000.0001) %MON vort_p_sd                    =   4.1151182902939E-05
(PID.TID 0000.0001) %MON surfExpan_theta_mean         =   9.3973224263916E-21
(PID.TID 0000.0001) %MON surfExpan_salt_mean          =   1.4096141537973E-20
(PID.TID 0000.0001) // =======================================================
(PID.TID 0000.0001) // End MONITOR dynamic field statistics
(PID.TID 0000.0001) // =======================================================
 cg2d: Sum(rhs),rhsMax =  -3.72665247746022E-04  1.38111219465355E-01
 cg2d: Sum(rhs),rhsMax =  -3.72269952901605E-04  1.38108052064030E-01
 cg2d: Sum(rhs),rhsMax =  -3.71869010586642E-04  1.38104891658488E-01
 cg2d: Sum(rhs),rhsMax =  -3.71462613908411E-04  1.38101738246855E-01
 cg2d: Sum(rhs),rhsMax =  -3.71050924113906E-04  1.38098591826190E-01
 cg2d: Sum(rhs),rhsMax =  -3.70634087874804E-04  1.38095452394096E-01
 cg2d: Sum(rhs),rhsMax =  -3.70212248573148E-04  1.38092319949661E-01
 cg2d: Sum(rhs),rhsMax =  -3.69785551173099E-04  1.38089194493843E-01
 cg2d: Sum(rhs),rhsMax =  -3.69354140179868E-04  1.38086076029252E-01
 cg2d: Sum(rhs),rhsMax =  -3.68918155207720E-04  1.38082964559503E-01
 cg2d: Sum(rhs),rhsMax =  -3.68477726670228E-04  1.38079860088500E-01
 cg2d: Sum(rhs),rhsMax =  -3.68125524397093E-04  1.38076762379836E-01
 cg2d: Sum(rhs),rhsMax =  -3.67770027841365E-04  1.38073671908655E-01
 cg2d: Sum(rhs),rhsMax =  -3.67411424606019E-04  1.38070588439244E-01
 cg2d: Sum(rhs),rhsMax =  -3.67049730801758E-04  1.38067511982285E-01
 cg2d: Sum(rhs),rhsMax =  -3.66684986662653E-04  1.38064442537081E-01
 cg2d: Sum(rhs),rhsMax =  -3.66317227903645E-04  1.38061380105451E-01
 cg2d: Sum(rhs),rhsMax =  -3.65946485619616E-04  1.38058324689163E-01
 cg2d: Sum(rhs),rhsMax =  -3.65572786053735E-04  1.38055276289408E-01
 cg2d: Sum(rhs),rhsMax =  -3.65196151250139E-04  1.38052234907272E-01
 cg2d: Sum(rhs),rhsMax =  -3.64816599363109E-04  1.38049200544102E-01
 cg2d: Sum(rhs),rhsMax =  -3.64434145251315E-04  1.38046173201603E-01
 cg2d: Sum(rhs),rhsMax =  -3.64048801756188E-04  1.38043152881746E-01
 cg2d: Sum(rhs),rhsMax =  -3.63660579039236E-04  1.38040139586618E-01
 cg2d: Sum(rhs),rhsMax =  -3.63269485248838E-04  1.38037133318284E-01
 cg2d: Sum(rhs),rhsMax =  -3.62875526219421E-04  1.38034134078714E-01
 cg2d: Sum(rhs),rhsMax =  -3.62478705698555E-04  1.38031141869762E-01
 cg2d: Sum(rhs),rhsMax =  -3.62079025246436E-04  1.38028156693174E-01
 cg2d: Sum(rhs),rhsMax =  -3.61676484642109E-04  1.38025178550623E-01
 cg2d: Sum(rhs),rhsMax =  -3.61271082095191E-04  1.38022207443739E-01
 cg2d: Sum(rhs),rhsMax =  -3.60862814429512E-04  1.38019243374138E-01
 cg2d: Sum(rhs),rhsMax =  -3.60451677205522E-04  1.38016286343430E-01
 cg2d: Sum(rhs),rhsMax =  -3.60037665031807E-04  1.38013336353234E-01
 cg2d: Sum(rhs),rhsMax =  -3.59620771474942E-04  1.38010393405176E-01
 cg2d: Sum(rhs),rhsMax =  -3.59200989510198E-04  1.38007457500876E-01
 cg2d: Sum(rhs),rhsMax =  -3.58778311148963E-04  1.38004528641944E-01
 cg2d: Sum(rhs),rhsMax =  -3.58352727863215E-04  1.38001606829966E-01
 cg2d: Sum(rhs),rhsMax =  -3.57924230622511E-04  1.37998692066499E-01
 cg2d: Sum(rhs),rhsMax =  -3.57492809892623E-04  1.37995784353069E-01
 cg2d: Sum(rhs),rhsMax =  -3.57058455667591E-04  1.37992883691169E-01
 cg2d: Sum(rhs),rhsMax =  -3.56621157701258E-04  1.37989990082268E-01
 cg2d: Sum(rhs),rhsMax =  -3.56180905595976E-04  1.37987103527811E-01
 cg2d: Sum(rhs),rhsMax =  -3.55737688824084E-04  1.37984224029227E-01
 cg2d: Sum(rhs),rhsMax =  -3.55291496559467E-04  1.37981351587926E-01
 cg2d: Sum(rhs),rhsMax =  -3.54842318061317E-04  1.37978486205301E-01
 cg2d: Sum(rhs),rhsMax =  -3.54390142602468E-04  1.37975627882731E-01
 cg2d: Sum(rhs),rhsMax =  -3.53934959553196E-04  1.37972776621574E-01
 cg2d: Sum(rhs),rhsMax =  -3.53476758115860E-04  1.37969932423166E-01
 cg2d: Sum(rhs),rhsMax =  -3.53015527981407E-04  1.37967095288820E-01
 cg2d: Sum(rhs),rhsMax =  -3.52551258770660E-04  1.37964265219831E-01
 cg2d: Sum(rhs),rhsMax =  -3.52083940476261E-04  1.37961442217467E-01
 cg2d: Sum(rhs),rhsMax =  -3.51613563197978E-04  1.37958626282978E-01
 cg2d: Sum(rhs),rhsMax =  -3.51140117216006E-04  1.37955817417591E-01
 cg2d: Sum(rhs),rhsMax =  -3.50663593426361E-04  1.37953015622514E-01
 cg2d: Sum(rhs),rhsMax =  -3.50183982795653E-04  1.37950220898933E-01
 cg2d: Sum(rhs),rhsMax =  -3.49701276631856E-04  1.37947433248016E-01
 cg2d: Sum(rhs),rhsMax =  -3.49215466722268E-04  1.37944652670909E-01
 cg2d: Sum(rhs),rhsMax =  -3.48726545126193E-04  1.37941879168739E-01
 cg2d: Sum(rhs),rhsMax =  -3.48234504281047E-04  1.37939112742612E-01
 cg2d: Sum(rhs),rhsMax =  -3.47739337144912E-04  1.37936353393611E-01
 cg2d: Sum(rhs),rhsMax =  -3.47241036989086E-04  1.37933601122801E-01
 cg2d: Sum(rhs),rhsMax =  -3.46739597627693E-04  1.37930855931224E-01
 cg2d: Sum(rhs),rhsMax =  -3.46235013021678E-04  1.37928117819905E-01
 cg2d: Sum(rhs),rhsMax =  -3.45727277930301E-04  1.37925386789841E-01
 cg2d: Sum(rhs),rhsMax =  -3.45216387470478E-04  1.37922662842016E-01
 cg2d: Sum(rhs),rhsMax =  -3.44702336968434E-04  1.37919945977389E-01
 cg2d: Sum(rhs),rhsMax =  -3.44185122721233E-04  1.37917236196899E-01
 cg2d: Sum(rhs),rhsMax =  -3.43664740908574E-04  1.37914533501466E-01
 cg2d: Sum(rhs),rhsMax =  -3.43141188548794E-04  1.37911837891988E-01
 cg2d: Sum(rhs),rhsMax =  -3.42614463024766E-04  1.37909149369343E-01
 cg2d: Sum(rhs),rhsMax =  -3.42084562156327E-04  1.37906467934386E-01
 cg2d: Sum(rhs),rhsMax =  -3.41551484439788E-04  1.37903793587956E-01
(PID.TID 0000.0001)      cg2d_init_res =   6.23189606413344E-04
(PID.TID 0000.0001)      cg2d_iters(min,last) =      -1      74
(PID.TID 0000.0001)      cg2d_last_res =   9.92839463619258E-08
(PID.TID 0000.0001) // =======================================================
(PID.TID 0000.0001) // Begin MONITOR dynamic field statistics
(PID.TID 0000.0001) // =======================================================
(PID.TID 0000.0001) %MON time_tsnumber                =                 15984
(PID.TID 0000.0001) %MON time_secondsf                =   1.9180800000000E+07
(PID.TID 0000.0001) %MON dynstat_eta_max              =   4.5953311168094E-02
(PID.TID 0000.0001) %MON dynstat_eta_min              =  -2.1001189790035E-02
(PID.TID 0000.0001) %MON dynstat_eta_mean             =   2.3513192050670E-07
(PID.TID 0000.0001) %MON dynstat_eta_sd               =   1.5574960920648E-02
(PID.TID 0000.0001) %MON dynstat_eta_del2             =   1.7905259464404E-05
(PID.TID 0000.0001) %MON dynstat_uvel_max             =   3.0996207438423E-02
(PID.TID 0000.0001) %MON dynstat_uvel_min             =  -1.5778398987659E-02
(PID.TID 0000.0001) %MON dynstat_uvel_mean            =  -2.6336179198569E-08
(PID.TID 0000.0001) %MON dynstat_uvel_sd              =   6.3694146814793E-03
(PID.TID 0000.0001) %MON dynstat_uvel_del2            =   7.8004932948235E-06
(PID.TID 0000.0001) %MON dynstat_vvel_max             =   8.2777978872505E-02
(PID.TID 0000.0001) %MON dynstat_vvel_min             =  -3.2160923819295E-02
(PID.TID 0000.0001) %MON dynstat_vvel_mean            =  -1.4524231570174E-09
(PID.TID 0000.0001) %MON dynstat_vvel_sd              =   1.4571212553299E-02
(PID.TID 0000.0001) %MON dynstat_vvel_del2            =   7.4023567728775E-05
(PID.TID 0000.0001) %MON dynstat_wvel_max             =   9.9770638896007E-09
(PID.TID 0000.0001) %MON dynstat_wvel_min             =  -4.6021175719216E-09
(PID.TID 0000.0001) %MON dynstat_wvel_mean            =   7.1185619769191E-22
(PID.TID 0000.0001) %MON dynstat_wvel_sd              =   3.7765923767795E-09
(PID.TID 0000.0001) %MON dynstat_wvel_del2            =   1.3302876971586E-12
(PID.TID 0000.0001) %MON dynstat_theta_max            =   2.0000000000000E+01
(PID.TID 0000.0001) %MON dynstat_theta_min            =   2.0000000000000E+01
(PID.TID 0000.0001) %MON dynstat_theta_mean           =   2.0000000000000E+01
(PID.TID 0000.0001) %MON dynstat_theta_sd             =   0.0000000000000E+00
(PID.TID 0000.0001) %MON dynstat_theta_del2           =   0.0000000000000E+00
(PID.TID 0000.0001) %MON dynstat_salt_max             =   3.0000000000000E+01
(PID.TID 0000.0001) %MON dynstat_salt_min             =   3.0000000000000E+01
(PID.TID 0000.0001) %MON dynstat_salt_mean            =   3.0000000000000E+01
(PID.TID 0000.0001) %MON dynstat_salt_sd              =   0.0000000000000E+00
(PID.TID 0000.0001) %MON dynstat_salt_del2            =   0.0000000000000E+00
(PID.TID 0000.0001) %MON trAdv_CFL_u_max              =   1.8598038726852E-03
(PID.TID 0000.0001) %MON trAdv_CFL_v_max              =   4.9667996623984E-03
(PID.TID 0000.0001) %MON trAdv_CFL_w_max              =   2.3949132990441E-09
(PID.TID 0000.0001) %MON advcfl_uvel_max              =   1.8597724463054E-03
(PID.TID 0000.0001) %MON advcfl_vvel_max              =   4.9666787323503E-03
(PID.TID 0000.0001) %MON advcfl_wvel_max              =   4.7889906670083E-09
(PID.TID 0000.0001) %MON advcfl_W_hf_max              =   0.0000000000000E+00
(PID.TID 0000.0001) %MON pe_b_mean                    =   2.3797039898803E-07
(PID.TID 0000.0001) %MON ke_max                       =   3.4245758147114E-03
(PID.TID 0000.0001) %MON ke_mean                      =   1.2433742534055E-04
(PID.TID 0000.0001) %MON ke_vol                       =   7.2000000000000E+15
(PID.TID 0000.0001) %MON vort_r_min                   =  -1.5142835496706E-06
(PID.TID 0000.0001) %MON vort_r_max                   =   2.2627032616509E-06
(PID.TID 0000.0001) %MON vort_a_mean                  =   1.0600000000000E-04
(PID.TID 0000.0001) %MON vort_a_sd                    =   3.5364918291828E-06
(PID.TID 0000.0001) %MON vort_p_mean                  =   1.1130000000000E-04
(PID.TID 0000.0001) %MON vort_p_sd                    =   4.1151191127839E-05
(PID.TID 0000.0001) %MON surfExpan_theta_mean         =   1.4241489469195E-20
(PID.TID 0000.0001) %MON surfExpan_salt_mean          =   2.1362548766983E-20
(PID.TID 0000.0001) // =======================================================
(PID.TID 0000.0001) // End MONITOR dynamic field statistics
(PID.TID 0000.0001) // =======================================================
 cg2d: Sum(rhs),rhsMax =  -3.41015228465202E-04  1.37901126330866E-01
 cg2d: Sum(rhs),rhsMax =  -3.40475793611744E-04  1.37898466163915E-01
 cg2d: Sum(rhs),rhsMax =  -3.39933179694779E-04  1.37895813087872E-01
 cg2d: Sum(rhs),rhsMax =  -3.39387386765080E-04  1.37893167103494E-01
 cg2d: Sum(rhs),rhsMax =  -3.38838415631111E-04  1.37890528211514E-01
 cg2d: Sum(rhs),rhsMax =  -3.38286267294185E-04  1.37887896412643E-01
 cg2d: Sum(rhs),rhsMax =  -3.37730943350578E-04  1.37885271707574E-01
 cg2d: Sum(rhs),rhsMax =  -3.37172445947262E-04  1.37882654096978E-01
 cg2d: Sum(rhs),rhsMax =  -3.36610777410982E-04  1.37880043581505E-01
 cg2d: Sum(rhs),rhsMax =  -3.36159476707842E-04  1.37877440544208E-01
 cg2d: Sum(rhs),rhsMax =  -3.35705409626728E-04  1.37874844238511E-01
 cg2d: Sum(rhs),rhsMax =  -3.35248437701811E-04  1.37872254998577E-01
 cg2d: Sum(rhs),rhsMax =  -3.34788609877044E-04  1.37869672862219E-01
 cg2d: Sum(rhs),rhsMax =  -3.34325924571233E-04  1.37867097823735E-01
 cg2d: Sum(rhs),rhsMax =  -3.33860383977127E-04  1.37864529884814E-01
 cg2d: Sum(rhs),rhsMax =  -3.33391991929757E-04  1.37861969046428E-01
 cg2d: Sum(rhs),rhsMax =  -3.32920753726066E-04  1.37859415308803E-01
 cg2d: Sum(rhs),rhsMax =  -3.32446674306298E-04  1.37856868671655E-01
 cg2d: Sum(rhs),rhsMax =  -3.31969758412166E-04  1.37854329134843E-01
 cg2d: Sum(rhs),rhsMax =  -3.31490010475596E-04  1.37851796698523E-01
 cg2d: Sum(rhs),rhsMax =  -3.31007435380605E-04  1.37849271363099E-01
 cg2d: Sum(rhs),rhsMax =  -3.30522038469866E-04  1.37846753129082E-01
 cg2d: Sum(rhs),rhsMax =  -3.30033825551797E-04  1.37844241996980E-01
 cg2d: Sum(rhs),rhsMax =  -3.29542803176396E-04  1.37841737967256E-01
 cg2d: Sum(rhs),rhsMax =  -3.29048977870173E-04  1.37839241040299E-01
 cg2d: Sum(rhs),rhsMax =  -3.28552356607986E-04  1.37836751216443E-01
 cg2d: Sum(rhs),rhsMax =  -3.28052946727943E-04  1.37834268495972E-01
 cg2d: Sum(rhs),rhsMax =  -3.27550755668111E-04  1.37831792879128E-01
 cg2d: Sum(rhs),rhsMax =  -3.27045791149631E-04  1.37829324366123E-01
 cg2d: Sum(rhs),rhsMax =  -3.26538061270579E-04  1.37826862957143E-01
 cg2d: Sum(rhs),rhsMax =  -3.26027574353700E-04  1.37824408652358E-01
 cg2d: Sum(rhs),rhsMax =  -3.25514338987795E-04  1.37821961451931E-01
 cg2d: Sum(rhs),rhsMax =  -3.24998364015537E-04  1.37819521356017E-01
 cg2d: Sum(rhs),rhsMax =  -3.24479658733477E-04  1.37817088364759E-01
 cg2d: Sum(rhs),rhsMax =  -3.23958232209902E-04  1.37814662478290E-01
 cg2d: Sum(rhs),rhsMax =  -3.23434094142274E-04  1.37812243696719E-01
 cg2d: Sum(rhs),rhsMax =  -3.22907254419834E-04  1.37809832020133E-01
 cg2d: Sum(rhs),rhsMax =  -3.22377723031294E-04  1.37807427448589E-01
 cg2d: Sum(rhs),rhsMax =  -3.21845510181155E-04  1.37805029982123E-01
 cg2d: Sum(rhs),rhsMax =  -3.21310626327688E-04  1.37802639620742E-01
 cg2d: Sum(rhs),rhsMax =  -3.20773082111270E-04  1.37800256364437E-01
 cg2d: Sum(rhs),rhsMax =  -3.20232888388840E-04  1.37797880213175E-01
 cg2d: Sum(rhs),rhsMax =  -3.19690056173065E-04  1.37795511166906E-01
 cg2d: Sum(rhs),rhsMax =  -3.19144596557807E-04  1.37793149225565E-01
 cg2d: Sum(rhs),rhsMax =  -3.18596520945183E-04  1.37790794389065E-01
 cg2d: Sum(rhs),rhsMax =  -3.18045840931187E-04  1.37788446657299E-01
 cg2d: Sum(rhs),rhsMax =  -3.17492568042998E-04  1.37786106030140E-01
 cg2d: Sum(rhs),rhsMax =  -3.16936714165749E-04  1.37783772507444E-01
 cg2d: Sum(rhs),rhsMax =  -3.16378291245365E-04  1.37781446089038E-01
 cg2d: Sum(rhs),rhsMax =  -3.15817311319118E-04  1.37779126774736E-01
 cg2d: Sum(rhs),rhsMax =  -3.15253786625758E-04  1.37776814564326E-01
 cg2d: Sum(rhs),rhsMax =  -3.14687729528904E-04  1.37774509457576E-01
 cg2d: Sum(rhs),rhsMax =  -3.14119152520684E-04  1.37772211454237E-01
 cg2d: Sum(rhs),rhsMax =  -3.13548068093989E-04  1.37769920554038E-01
 cg2d: Sum(rhs),rhsMax =  -3.12974489018771E-04  1.37767636756684E-01
 cg2d: Sum(rhs),rhsMax =  -3.12398427947769E-04  1.37765360061868E-01
 cg2d: Sum(rhs),rhsMax =  -3.11819897745844E-04  1.37763090469255E-01
 cg2d: Sum(rhs),rhsMax =  -3.11238911404674E-04  1.37760827978498E-01
 cg2d: Sum(rhs),rhsMax =  -3.10655482074909E-04  1.37758572589219E-01
 cg2d: Sum(rhs),rhsMax =  -3.10069622640055E-04  1.37756324301029E-01
 cg2d: Sum(rhs),rhsMax =  -3.09481346562257E-04  1.37754083113514E-01
 cg2d: Sum(rhs),rhsMax =  -3.08890666918421E-04  1.37751849026242E-01
 cg2d: Sum(rhs),rhsMax =  -3.08297597055761E-04  1.37749622038758E-01
 cg2d: Sum(rhs),rhsMax =  -3.07702150387835E-04  1.37747402150587E-01
 cg2d: Sum(rhs),rhsMax =  -3.07104340395829E-04  1.37745189361238E-01
 cg2d: Sum(rhs),rhsMax =  -3.06504180546858E-04  1.37742983670194E-01
 cg2d: Sum(rhs),rhsMax =  -3.05901684298720E-04  1.37740785076923E-01
 cg2d: Sum(rhs),rhsMax =  -3.05296865341371E-04  1.37738593580867E-01
 cg2d: Sum(rhs),rhsMax =  -3.04689737340538E-04  1.37736409181455E-01
 cg2d: Sum(rhs),rhsMax =  -3.04080313831714E-04  1.37734231878088E-01
 cg2d: Sum(rhs),rhsMax =  -3.03468608529809E-04  1.37732061670155E-01
 cg2d: Sum(rhs),rhsMax =  -3.02854635142554E-04  1.37729898557017E-01
(PID.TID 0000.0001)      cg2d_init_res =   6.19574265869639E-04
(PID.TID 0000.0001)      cg2d_iters(min,last) =      -1      75
(PID.TID 0000.0001)      cg2d_last_res =   9.72058864259209E-08
(PID.TID 0000.0001) // =======================================================
(PID.TID 0000.0001) // Begin MONITOR dynamic field statistics
(PID.TID 0000.0001) // =======================================================
(PID.TID 0000.0001) %MON time_tsnumber                =                 16056
(PID.TID 0000.0001) %MON time_secondsf                =   1.9267200000000E+07
(PID.TID 0000.0001) %MON dynstat_eta_max              =   4.5641472426132E-02
(PID.TID 0000.0001) %MON dynstat_eta_min              =  -2.1195853810943E-02
(PID.TID 0000.0001) %MON dynstat_eta_mean             =   2.0813306785361E-07
(PID.TID 0000.0001) %MON dynstat_eta_sd               =   1.5689018306536E-02
(PID.TID 0000.0001) %MON dynstat_eta_del2             =   1.7887927134280E-05
(PID.TID 0000.0001) %MON dynstat_uvel_max             =   3.0961521020822E-02
(PID.TID 0000.0001) %MON dynstat_uvel_min             =  -1.5739072293991E-02
(PID.TID 0000.0001) %MON dynstat_uvel_mean            =  -4.3744741102395E-08
(PID.TID 0000.0001) %MON dynstat_uvel_sd              =   6.4196865132158E-03
(PID.TID 0000.0001) %MON dynstat_uvel_del2            =   7.8234686553628E-06
(PID.TID 0000.0001) %MON dynstat_vvel_max             =   8.2644392661158E-02
(PID.TID 0000.0001) %MON dynstat_vvel_min             =  -3.2132056119548E-02
(PID.TID 0000.0001) %MON dynstat_vvel_mean            =  -9.1063951131158E-10
(PID.TID 0000.0001) %MON dynstat_vvel_sd              =   1.4554088054771E-02
(PID.TID 0000.0001) %MON dynstat_vvel_del2            =   7.3943539837849E-05
(PID.TID 0000.0001) %MON dynstat_wvel_max             =   9.8921497837728E-09
(PID.TID 0000.0001) %MON dynstat_wvel_min             =  -5.0568109913729E-09
(PID.TID 0000.0001) %MON dynstat_wvel_mean            =   4.1405878113841E-21
(PID.TID 0000.0001) %MON dynstat_wvel_sd              =   3.7701124837942E-09
(PID.TID 0000.0001) %MON dynstat_wvel_del2            =   1.3195553176029E-12
(PID.TID 0000.0001) %MON dynstat_theta_max            =   2.0000000000000E+01
(PID.TID 0000.0001) %MON dynstat_theta_min            =   2.0000000000000E+01
(PID.TID 0000.0001) %MON dynstat_theta_mean           =   2.0000000000000E+01
(PID.TID 0000.0001) %MON dynstat_theta_sd             =   0.0000000000000E+00
(PID.TID 0000.0001) %MON dynstat_theta_del2           =   0.0000000000000E+00
(PID.TID 0000.0001) %MON dynstat_salt_max             =   3.0000000000000E+01
(PID.TID 0000.0001) %MON dynstat_salt_min             =   3.0000000000000E+01
(PID.TID 0000.0001) %MON dynstat_salt_mean            =   3.0000000000000E+01
(PID.TID 0000.0001) %MON dynstat_salt_sd              =   0.0000000000000E+00
(PID.TID 0000.0001) %MON dynstat_salt_del2            =   0.0000000000000E+00
(PID.TID 0000.0001) %MON trAdv_CFL_u_max              =   1.8577176863198E-03
(PID.TID 0000.0001) %MON trAdv_CFL_v_max              =   4.9587654800150E-03
(PID.TID 0000.0001) %MON trAdv_CFL_w_max              =   2.3745442182557E-09
(PID.TID 0000.0001) %MON advcfl_uvel_max              =   1.8576912612493E-03
(PID.TID 0000.0001) %MON advcfl_vvel_max              =   4.9586635596695E-03
(PID.TID 0000.0001) %MON advcfl_wvel_max              =   4.7482318962109E-09
(PID.TID 0000.0001) %MON advcfl_W_hf_max              =   0.0000000000000E+00
(PID.TID 0000.0001) %MON pe_b_mean                    =   2.4146853485229E-07
(PID.TID 0000.0001) %MON ke_max                       =   3.4135184104965E-03
(PID.TID 0000.0001) %MON ke_mean                      =   1.2440831156765E-04
(PID.TID 0000.0001) %MON ke_vol                       =   7.2000000000000E+15
(PID.TID 0000.0001) %MON vort_r_min                   =  -1.5115790389916E-06
(PID.TID 0000.0001) %MON vort_r_max                   =   2.2605641625571E-06
(PID.TID 0000.0001) %MON vort_a_mean                  =   1.0600000000000E-04
(PID.TID 0000.0001) %MON vort_a_sd                    =   3.5364633340821E-06
(PID.TID 0000.0001) %MON vort_p_mean                  =   1.1130000000000E-04
(PID.TID 0000.0001) %MON vort_p_sd                    =   4.1151199982770E-05
(PID.TID 0000.0001) %MON surfExpan_theta_mean         =   8.2809805926034E-20
(PID.TID 0000.0001) %MON surfExpan_salt_mean          =   1.2421321008797E-19
(PID.TID 0000.0001) // =======================================================
(PID.TID 0000.0001) // End MONITOR dynamic field statistics
(PID.TID 0000.0001) // =======================================================
 cg2d: Sum(rhs),rhsMax =  -3.02238407473597E-04  1.37727742538020E-01
 cg2d: Sum(rhs),rhsMax =  -3.01619939194604E-04  1.37725593612488E-01
 cg2d: Sum(rhs),rhsMax =  -3.00999244080098E-04  1.37723451779723E-01
 cg2d: Sum(rhs),rhsMax =  -3.00376336047996E-04  1.37721317039012E-01
 cg2d: Sum(rhs),rhsMax =  -2.99751228854610E-04  1.37719189389616E-01
 cg2d: Sum(rhs),rhsMax =  -2.99123936147476E-04  1.37717068830779E-01
 cg2d: Sum(rhs),rhsMax =  -2.98494471933843E-04  1.37714955361726E-01
 cg2d: Sum(rhs),rhsMax =  -2.97862850017008E-04  1.37712848981658E-01
 cg2d: Sum(rhs),rhsMax =  -2.97229084087835E-04  1.37710749689760E-01
 cg2d: Sum(rhs),rhsMax =  -2.96593188015273E-04  1.37708657485194E-01
 cg2d: Sum(rhs),rhsMax =  -2.95955175714157E-04  1.37706572367102E-01
 cg2d: Sum(rhs),rhsMax =  -2.95315060691627E-04  1.37704494334609E-01
 cg2d: Sum(rhs),rhsMax =  -2.94672857020940E-04  1.37702423386817E-01
 cg2d: Sum(rhs),rhsMax =  -2.94028578329760E-04  1.37700359522807E-01
 cg2d: Sum(rhs),rhsMax =  -2.93382238454688E-04  1.37698302741643E-01
 cg2d: Sum(rhs),rhsMax =  -2.92733851005393E-04  1.37696253042368E-01
 cg2d: Sum(rhs),rhsMax =  -2.92083429844773E-04  1.37694210424004E-01
 cg2d: Sum(rhs),rhsMax =  -2.91430988468460E-04  1.37692174885552E-01
 cg2d: Sum(rhs),rhsMax =  -2.90776540727531E-04  1.37690146425996E-01
 cg2d: Sum(rhs),rhsMax =  -2.90120100225263E-04  1.37688125044299E-01
 cg2d: Sum(rhs),rhsMax =  -2.89461680464823E-04  1.37686110739402E-01
 cg2d: Sum(rhs),rhsMax =  -2.88801295157375E-04  1.37684103510228E-01
 cg2d: Sum(rhs),rhsMax =  -2.88138957822127E-04  1.37682103355678E-01
 cg2d: Sum(rhs),rhsMax =  -2.87474681919674E-04  1.37680110274637E-01
 cg2d: Sum(rhs),rhsMax =  -2.86808481021812E-04  1.37678124265965E-01
 cg2d: Sum(rhs),rhsMax =  -2.86140368534738E-04  1.37676145328506E-01
 cg2d: Sum(rhs),rhsMax =  -2.85470357870170E-04  1.37674173461082E-01
 cg2d: Sum(rhs),rhsMax =  -2.84798462325376E-04  1.37672208662495E-01
 cg2d: Sum(rhs),rhsMax =  -2.84124695310177E-04  1.37670250931529E-01
 cg2d: Sum(rhs),rhsMax =  -2.83449070127574E-04  1.37668300266945E-01
 cg2d: Sum(rhs),rhsMax =  -2.82771600043386E-04  1.37666356667486E-01
 cg2d: Sum(rhs),rhsMax =  -2.82092298124191E-04  1.37664420131876E-01
 cg2d: Sum(rhs),rhsMax =  -2.81411177599798E-04  1.37662490658817E-01
 cg2d: Sum(rhs),rhsMax =  -2.80728251566570E-04  1.37660568246993E-01
 cg2d: Sum(rhs),rhsMax =  -2.80043533055579E-04  1.37658652895067E-01
 cg2d: Sum(rhs),rhsMax =  -2.79357035190686E-04  1.37656744601680E-01
 cg2d: Sum(rhs),rhsMax =  -2.78668770975713E-04  1.37654843365459E-01
 cg2d: Sum(rhs),rhsMax =  -2.77978753062459E-04  1.37652949185006E-01
 cg2d: Sum(rhs),rhsMax =  -2.77286994430141E-04  1.37651062058904E-01
 cg2d: Sum(rhs),rhsMax =  -2.76593508016808E-04  1.37649181985718E-01
 cg2d: Sum(rhs),rhsMax =  -2.75898306469596E-04  1.37647308963992E-01
 cg2d: Sum(rhs),rhsMax =  -2.75201402541522E-04  1.37645442992249E-01
 cg2d: Sum(rhs),rhsMax =  -2.74502808851398E-04  1.37643584068996E-01
 cg2d: Sum(rhs),rhsMax =  -2.73802538095060E-04  1.37641732192715E-01
 cg2d: Sum(rhs),rhsMax =  -2.73100602622490E-04  1.37639887361873E-01
 cg2d: Sum(rhs),rhsMax =  -2.72397015094562E-04  1.37638049574914E-01
 cg2d: Sum(rhs),rhsMax =  -2.71691787842525E-04  1.37636218830265E-01
 cg2d: Sum(rhs),rhsMax =  -2.70984933306507E-04  1.37634395126329E-01
 cg2d: Sum(rhs),rhsMax =  -2.70276463825794E-04  1.37632578461494E-01
 cg2d: Sum(rhs),rhsMax =  -2.69566391579571E-04  1.37630768834126E-01
 cg2d: Sum(rhs),rhsMax =  -2.68854728865598E-04  1.37628966242570E-01
 cg2d: Sum(rhs),rhsMax =  -2.68141487781045E-04  1.37627170685154E-01
 cg2d: Sum(rhs),rhsMax =  -2.67426680397864E-04  1.37625382160186E-01
 cg2d: Sum(rhs),rhsMax =  -2.66710318823659E-04  1.37623600665951E-01
 cg2d: Sum(rhs),rhsMax =  -2.65992414953314E-04  1.37621826200719E-01
 cg2d: Sum(rhs),rhsMax =  -2.65272980757659E-04  1.37620058762736E-01
 cg2d: Sum(rhs),rhsMax =  -2.64552028017026E-04  1.37618298350232E-01
 cg2d: Sum(rhs),rhsMax =  -2.63829568584765E-04  1.37616544961416E-01
 cg2d: Sum(rhs),rhsMax =  -2.63105614220281E-04  1.37614798594475E-01
 cg2d: Sum(rhs),rhsMax =  -2.62380176550970E-04  1.37613059247581E-01
 cg2d: Sum(rhs),rhsMax =  -2.61653267296923E-04  1.37611326918882E-01
 cg2d: Sum(rhs),rhsMax =  -2.60924897892112E-04  1.37609601606509E-01
 cg2d: Sum(rhs),rhsMax =  -2.60195079807750E-04  1.37607883308574E-01
 cg2d: Sum(rhs),rhsMax =  -2.59463824641927E-04  1.37606172023166E-01
 cg2d: Sum(rhs),rhsMax =  -2.58731143780637E-04  1.37604467748357E-01
 cg2d: Sum(rhs),rhsMax =  -2.57997048349305E-04  1.37602770482200E-01
 cg2d: Sum(rhs),rhsMax =  -2.57261549810396E-04  1.37601080222727E-01
 cg2d: Sum(rhs),rhsMax =  -2.56524659219275E-04  1.37599396967952E-01
 cg2d: Sum(rhs),rhsMax =  -2.55786387831971E-04  1.37597720715866E-01
 cg2d: Sum(rhs),rhsMax =  -2.55046746663616E-04  1.37596051464445E-01
 cg2d: Sum(rhs),rhsMax =  -2.54305746746532E-04  1.37594389211643E-01
 cg2d: Sum(rhs),rhsMax =  -2.53563399092339E-04  1.37592733955394E-01
(PID.TID 0000.0001)      cg2d_init_res =   6.15990312250895E-04
(PID.TID 0000.0001)      cg2d_iters(min,last) =      -1      75
(PID.TID 0000.0001)      cg2d_last_res =   9.98742323497611E-08
(PID.TID 0000.0001) // =======================================================
(PID.TID 0000.0001) // Begin MONITOR dynamic field statistics
(PID.TID 0000.0001) // =======================================================
(PID.TID 0000.0001) %MON time_tsnumber                =                 16128
(PID.TID 0000.0001) %MON time_secondsf                =   1.9353600000000E+07
(PID.TID 0000.0001) %MON dynstat_eta_max              =   4.5363215251980E-02
(PID.TID 0000.0001) %MON dynstat_eta_min              =  -2.1383808979979E-02
(PID.TID 0000.0001) %MON dynstat_eta_mean             =   1.7392869508411E-07
(PID.TID 0000.0001) %MON dynstat_eta_sd               =   1.5819705238344E-02
(PID.TID 0000.0001) %MON dynstat_eta_del2             =   1.7870845146136E-05
(PID.TID 0000.0001) %MON dynstat_uvel_max             =   3.0932923586759E-02
(PID.TID 0000.0001) %MON dynstat_uvel_min             =  -1.5707820920379E-02
(PID.TID 0000.0001) %MON dynstat_uvel_mean            =  -6.0314171153783E-08
(PID.TID 0000.0001) %MON dynstat_uvel_sd              =   6.4713965605094E-03
(PID.TID 0000.0001) %MON dynstat_uvel_del2            =   7.8481078578948E-06
(PID.TID 0000.0001) %MON dynstat_vvel_max             =   8.2533770180992E-02
(PID.TID 0000.0001) %MON dynstat_vvel_min             =  -3.2088810782726E-02
(PID.TID 0000.0001) %MON dynstat_vvel_mean            =  -2.8523874421303E-10
(PID.TID 0000.0001) %MON dynstat_vvel_sd              =   1.4540793042978E-02
(PID.TID 0000.0001) %MON dynstat_vvel_del2            =   7.3874192333171E-05
(PID.TID 0000.0001) %MON dynstat_wvel_max             =   9.7619225045310E-09
(PID.TID 0000.0001) %MON dynstat_wvel_min             =  -5.5113878689008E-09
(PID.TID 0000.0001) %MON dynstat_wvel_mean            =  -1.4953791883777E-21
(PID.TID 0000.0001) %MON dynstat_wvel_sd              =   3.7657016830509E-09
(PID.TID 0000.0001) %MON dynstat_wvel_del2            =   1.3110494315701E-12
(PID.TID 0000.0001) %MON dynstat_theta_max            =   2.0000000000000E+01
(PID.TID 0000.0001) %MON dynstat_theta_min            =   2.0000000000000E+01
(PID.TID 0000.0001) %MON dynstat_theta_mean           =   2.0000000000000E+01
(PID.TID 0000.0001) %MON dynstat_theta_sd             =   0.0000000000000E+00
(PID.TID 0000.0001) %MON dynstat_theta_del2           =   0.0000000000000E+00
(PID.TID 0000.0001) %MON dynstat_salt_max             =   3.0000000000000E+01
(PID.TID 0000.0001) %MON dynstat_salt_min             =   3.0000000000000E+01
(PID.TID 0000.0001) %MON dynstat_salt_mean            =   3.0000000000000E+01
(PID.TID 0000.0001) %MON dynstat_salt_sd              =   0.0000000000000E+00
(PID.TID 0000.0001) %MON dynstat_salt_del2            =   0.0000000000000E+00
(PID.TID 0000.0001) %MON trAdv_CFL_u_max              =   1.8559967093028E-03
(PID.TID 0000.0001) %MON trAdv_CFL_v_max              =   4.9521089173743E-03
(PID.TID 0000.0001) %MON trAdv_CFL_w_max              =   2.3432663860018E-09
(PID.TID 0000.0001) %MON advcfl_uvel_max              =   1.8559754152055E-03
(PID.TID 0000.0001) %MON advcfl_vvel_max              =   4.9520262108595E-03
(PID.TID 0000.0001) %MON advcfl_wvel_max              =   4.6857228021749E-09
(PID.TID 0000.0001) %MON advcfl_W_hf_max              =   0.0000000000000E+00
(PID.TID 0000.0001) %MON pe_b_mean                    =   2.4550807545503E-07
(PID.TID 0000.0001) %MON ke_max                       =   3.4043186305028E-03
(PID.TID 0000.0001) %MON ke_mean                      =   1.2454587091815E-04
(PID.TID 0000.0001) %MON ke_vol                       =   7.2000000000000E+15
(PID.TID 0000.0001) %MON vort_r_min                   =  -1.5090997031445E-06
(PID.TID 0000.0001) %MON vort_r_max                   =   2.2591078018540E-06
(PID.TID 0000.0001) %MON vort_a_mean                  =   1.0600000000000E-04
(PID.TID 0000.0001) %MON vort_a_sd                    =   3.5364404254189E-06
(PID.TID 0000.0001) %MON vort_p_mean                  =   1.1130000000000E-04
(PID.TID 0000.0001) %MON vort_p_sd                    =   4.1151208801890E-05
(PID.TID 0000.0001) %MON surfExpan_theta_mean         =  -2.9912511973546E-20
(PID.TID 0000.0001) %MON surfExpan_salt_mean          =  -4.4870305002418E-20
(PID.TID 0000.0001) // =======================================================
(PID.TID 0000.0001) // End MONITOR dynamic field statistics
(PID.TID 0000.0001) // =======================================================
 cg2d: Sum(rhs),rhsMax =  -2.52819714561149E-04  1.37591085693615E-01
 cg2d: Sum(rhs),rhsMax =  -2.52074704064568E-04  1.37589444424200E-01
 cg2d: Sum(rhs),rhsMax =  -2.51328378329899E-04  1.37587810145028E-01
 cg2d: Sum(rhs),rhsMax =  -2.50580748047079E-04  1.37586182853954E-01
 cg2d: Sum(rhs),rhsMax =  -2.49831824000680E-04  1.37584562548818E-01
 cg2d: Sum(rhs),rhsMax =  -2.49081616685798E-04  1.37582949227436E-01
 cg2d: Sum(rhs),rhsMax =  -2.48330136818666E-04  1.37581342887608E-01
 cg2d: Sum(rhs),rhsMax =  -2.47577394755691E-04  1.37579743527113E-01
 cg2d: Sum(rhs),rhsMax =  -2.46823400983542E-04  1.37578151143712E-01
 cg2d: Sum(rhs),rhsMax =  -2.46068165859291E-04  1.37576565735145E-01
 cg2d: Sum(rhs),rhsMax =  -2.45311699812159E-04  1.37574987299133E-01
 cg2d: Sum(rhs),rhsMax =  -2.44554013001243E-04  1.37573415833379E-01
 cg2d: Sum(rhs),rhsMax =  -2.43795115674817E-04  1.37571851335566E-01
 cg2d: Sum(rhs),rhsMax =  -2.43035017978035E-04  1.37570293803356E-01
 cg2d: Sum(rhs),rhsMax =  -2.42273730006794E-04  1.37568743234395E-01
 cg2d: Sum(rhs),rhsMax =  -2.41511261884966E-04  1.37567199626306E-01
 cg2d: Sum(rhs),rhsMax =  -2.40747623480451E-04  1.37565662976696E-01
 cg2d: Sum(rhs),rhsMax =  -2.39982824837870E-04  1.37564133283150E-01
 cg2d: Sum(rhs),rhsMax =  -2.39216875802210E-04  1.37562610543235E-01
 cg2d: Sum(rhs),rhsMax =  -2.38449786161265E-04  1.37561094754501E-01
 cg2d: Sum(rhs),rhsMax =  -2.37681565765413E-04  1.37559585914474E-01
 cg2d: Sum(rhs),rhsMax =  -2.36912224263661E-04  1.37558084020664E-01
 cg2d: Sum(rhs),rhsMax =  -2.36141771291184E-04  1.37556589070562E-01
 cg2d: Sum(rhs),rhsMax =  -2.35370216580919E-04  1.37555101061638E-01
 cg2d: Sum(rhs),rhsMax =  -2.34597569613662E-04  1.37553619991344E-01
 cg2d: Sum(rhs),rhsMax =  -2.33823839919173E-04  1.37552145857113E-01
 cg2d: Sum(rhs),rhsMax =  -2.33049036886823E-04  1.37550678656358E-01
 cg2d: Sum(rhs),rhsMax =  -2.32273169951465E-04  1.37549218386474E-01
 cg2d: Sum(rhs),rhsMax =  -2.31496248609586E-04  1.37547765044836E-01
 cg2d: Sum(rhs),rhsMax =  -2.30718281876763E-04  1.37546318628799E-01
 cg2d: Sum(rhs),rhsMax =  -2.29939279187697E-04  1.37544879135701E-01
 cg2d: Sum(rhs),rhsMax =  -2.29159249769659E-04  1.37543446562859E-01
 cg2d: Sum(rhs),rhsMax =  -2.28378202718205E-04  1.37542020907573E-01
 cg2d: Sum(rhs),rhsMax =  -2.27596147140978E-04  1.37540602167121E-01
 cg2d: Sum(rhs),rhsMax =  -2.26813092029263E-04  1.37539190338766E-01
 cg2d: Sum(rhs),rhsMax =  -2.26029046494425E-04  1.37537785419749E-01
 cg2d: Sum(rhs),rhsMax =  -2.25244019425062E-04  1.37536387407290E-01
 cg2d: Sum(rhs),rhsMax =  -2.24458019724177E-04  1.37534996298596E-01
 cg2d: Sum(rhs),rhsMax =  -2.23671056197826E-04  1.37533612090850E-01
 cg2d: Sum(rhs),rhsMax =  -2.22883137784916E-04  1.37532234781218E-01
 cg2d: Sum(rhs),rhsMax =  -2.22094273163676E-04  1.37530864366847E-01
 cg2d: Sum(rhs),rhsMax =  -2.21304471072981E-04  1.37529500844864E-01
 cg2d: Sum(rhs),rhsMax =  -2.20513740208306E-04  1.37528144212379E-01
 cg2d: Sum(rhs),rhsMax =  -2.19722089124443E-04  1.37526794466480E-01
 cg2d: Sum(rhs),rhsMax =  -2.18929526394977E-04  1.37525451604240E-01
 cg2d: Sum(rhs),rhsMax =  -2.18136060669858E-04  1.37524115622709E-01
 cg2d: Sum(rhs),rhsMax =  -2.17341700303591E-04  1.37522786518922E-01
 cg2d: Sum(rhs),rhsMax =  -2.16546453841272E-04  1.37521464289893E-01
 cg2d: Sum(rhs),rhsMax =  -2.15750329693343E-04  1.37520148932616E-01
 cg2d: Sum(rhs),rhsMax =  -2.14953336138630E-04  1.37518840444069E-01
 cg2d: Sum(rhs),rhsMax =  -2.14155481609967E-04  1.37517538821209E-01
 cg2d: Sum(rhs),rhsMax =  -2.13356774254098E-04  1.37516244060976E-01
 cg2d: Sum(rhs),rhsMax =  -2.12557222288435E-04  1.37514956160289E-01
 cg2d: Sum(rhs),rhsMax =  -2.11756834038175E-04  1.37513675116050E-01
 cg2d: Sum(rhs),rhsMax =  -2.10955617612571E-04  1.37512400925142E-01
 cg2d: Sum(rhs),rhsMax =  -2.10153581150454E-04  1.37511133584427E-01
 cg2d: Sum(rhs),rhsMax =  -2.09350732629495E-04  1.37509873090752E-01
 cg2d: Sum(rhs),rhsMax =  -2.08547080016899E-04  1.37508619440943E-01
 cg2d: Sum(rhs),rhsMax =  -2.07742631528955E-04  1.37507372631807E-01
 cg2d: Sum(rhs),rhsMax =  -2.06937394917180E-04  1.37506132660134E-01
 cg2d: Sum(rhs),rhsMax =  -2.06131378254931E-04  1.37504899522693E-01
 cg2d: Sum(rhs),rhsMax =  -2.05324589215891E-04  1.37503673216236E-01
 cg2d: Sum(rhs),rhsMax =  -2.04517035765468E-04  1.37502453737497E-01
 cg2d: Sum(rhs),rhsMax =  -2.03708725697840E-04  1.37501241083189E-01
 cg2d: Sum(rhs),rhsMax =  -2.02899666669727E-04  1.37500035250008E-01
 cg2d: Sum(rhs),rhsMax =  -2.02089866515338E-04  1.37498836234631E-01
 cg2d: Sum(rhs),rhsMax =  -2.01279332899394E-04  1.37497644033717E-01
 cg2d: Sum(rhs),rhsMax =  -2.00468073374364E-04  1.37496458643904E-01
 cg2d: Sum(rhs),rhsMax =  -1.99656095748267E-04  1.37495280061817E-01
 cg2d: Sum(rhs),rhsMax =  -1.98843407365813E-04  1.37494108284055E-01
 cg2d: Sum(rhs),rhsMax =  -1.98030015947074E-04  1.37492943307203E-01
 cg2d: Sum(rhs),rhsMax =  -1.97215928879789E-04  1.37491785127830E-01
(PID.TID 0000.0001)      cg2d_init_res =   6.12457323415167E-04
(PID.TID 0000.0001)      cg2d_iters(min,last) =      -1      75
(PID.TID 0000.0001)      cg2d_last_res =   9.78647707887700E-08
(PID.TID 0000.0001) // =======================================================
(PID.TID 0000.0001) // Begin MONITOR dynamic field statistics
(PID.TID 0000.0001) // =======================================================
(PID.TID 0000.0001) %MON time_tsnumber                =                 16200
(PID.TID 0000.0001) %MON time_secondsf                =   1.9440000000000E+07
(PID.TID 0000.0001) %MON dynstat_eta_max              =   4.5121193415471E-02
(PID.TID 0000.0001) %MON dynstat_eta_min              =  -2.1562161511964E-02
(PID.TID 0000.0001) %MON dynstat_eta_mean             =   1.3501659544322E-07
(PID.TID 0000.0001) %MON dynstat_eta_sd               =   1.5964491585307E-02
(PID.TID 0000.0001) %MON dynstat_eta_del2             =   1.7854233865631E-05
(PID.TID 0000.0001) %MON dynstat_uvel_max             =   3.0910518809835E-02
(PID.TID 0000.0001) %MON dynstat_uvel_min             =  -1.5684528766252E-02
(PID.TID 0000.0001) %MON dynstat_uvel_mean            =  -7.5826753209389E-08
(PID.TID 0000.0001) %MON dynstat_uvel_sd              =   6.5236604627264E-03
(PID.TID 0000.0001) %MON dynstat_uvel_del2            =   7.8738462094777E-06
(PID.TID 0000.0001) %MON dynstat_vvel_max             =   8.2446187509156E-02
(PID.TID 0000.0001) %MON dynstat_vvel_min             =  -3.2032687190427E-02
(PID.TID 0000.0001) %MON dynstat_vvel_mean            =   4.1709784167097E-10
(PID.TID 0000.0001) %MON dynstat_vvel_sd              =   1.4531368701321E-02
(PID.TID 0000.0001) %MON dynstat_vvel_del2            =   7.3816197892154E-05
(PID.TID 0000.0001) %MON dynstat_wvel_max             =   9.6029671296492E-09
(PID.TID 0000.0001) %MON dynstat_wvel_min             =  -5.9454003151041E-09
(PID.TID 0000.0001) %MON dynstat_wvel_mean            =  -1.9328707720787E-22
(PID.TID 0000.0001) %MON dynstat_wvel_sd              =   3.7626964057811E-09
(PID.TID 0000.0001) %MON dynstat_wvel_del2            =   1.3020089742249E-12
(PID.TID 0000.0001) %MON dynstat_theta_max            =   2.0000000000000E+01
(PID.TID 0000.0001) %MON dynstat_theta_min            =   2.0000000000000E+01
(PID.TID 0000.0001) %MON dynstat_theta_mean           =   2.0000000000000E+01
(PID.TID 0000.0001) %MON dynstat_theta_sd             =   0.0000000000000E+00
(PID.TID 0000.0001) %MON dynstat_theta_del2           =   0.0000000000000E+00
(PID.TID 0000.0001) %MON dynstat_salt_max             =   3.0000000000000E+01
(PID.TID 0000.0001) %MON dynstat_salt_min             =   3.0000000000000E+01
(PID.TID 0000.0001) %MON dynstat_salt_mean            =   3.0000000000000E+01
(PID.TID 0000.0001) %MON dynstat_salt_sd              =   0.0000000000000E+00
(PID.TID 0000.0001) %MON dynstat_salt_del2            =   0.0000000000000E+00
(PID.TID 0000.0001) %MON trAdv_CFL_u_max              =   1.8546472473437E-03
(PID.TID 0000.0001) %MON trAdv_CFL_v_max              =   4.9468348158469E-03
(PID.TID 0000.0001) %MON trAdv_CFL_w_max              =   2.3050980177970E-09
(PID.TID 0000.0001) %MON advcfl_uvel_max              =   1.8546311285901E-03
(PID.TID 0000.0001) %MON advcfl_vvel_max              =   4.9467712505494E-03
(PID.TID 0000.0001) %MON advcfl_wvel_max              =   4.6094242222316E-09
(PID.TID 0000.0001) %MON advcfl_W_hf_max              =   0.0000000000000E+00
(PID.TID 0000.0001) %MON pe_b_mean                    =   2.5002255675525E-07
(PID.TID 0000.0001) %MON ke_max                       =   3.3969766027095E-03
(PID.TID 0000.0001) %MON ke_mean                      =   1.2474508756811E-04
(PID.TID 0000.0001) %MON ke_vol                       =   7.2000000000000E+15
(PID.TID 0000.0001) %MON vort_r_min                   =  -1.5065792716122E-06
(PID.TID 0000.0001) %MON vort_r_max                   =   2.2583112660263E-06
(PID.TID 0000.0001) %MON vort_a_mean                  =   1.0600000000000E-04
(PID.TID 0000.0001) %MON vort_a_sd                    =   3.5364232069750E-06
(PID.TID 0000.0001) %MON vort_p_mean                  =   1.1130000000000E-04
(PID.TID 0000.0001) %MON vort_p_sd                    =   4.1151216944093E-05
(PID.TID 0000.0001) %MON surfExpan_theta_mean         =  -3.8621167992087E-21
(PID.TID 0000.0001) %MON surfExpan_salt_mean          =  -5.7912810349750E-21
(PID.TID 0000.0001) // =======================================================
(PID.TID 0000.0001) // End MONITOR dynamic field statistics
(PID.TID 0000.0001) // =======================================================
 cg2d: Sum(rhs),rhsMax =  -1.96401153676612E-04  1.37490633742478E-01
 cg2d: Sum(rhs),rhsMax =  -1.95585697877860E-04  1.37489489147680E-01
 cg2d: Sum(rhs),rhsMax =  -1.94769568679374E-04  1.37488351339944E-01
 cg2d: Sum(rhs),rhsMax =  -1.93952773631125E-04  1.37487220315762E-01
 cg2d: Sum(rhs),rhsMax =  -1.93135320032845E-04  1.37486096071607E-01
 cg2d: Sum(rhs),rhsMax =  -1.92317215072634E-04  1.37484978603936E-01
 cg2d: Sum(rhs),rhsMax =  -1.91498466201146E-04  1.37483867909183E-01
 cg2d: Sum(rhs),rhsMax =  -1.90679080563428E-04  1.37482763983767E-01
 cg2d: Sum(rhs),rhsMax =  -1.89859065417892E-04  1.37481666824088E-01
 cg2d: Sum(rhs),rhsMax =  -1.89038427829455E-04  1.37480576426525E-01
 cg2d: Sum(rhs),rhsMax =  -1.88217175115186E-04  1.37479492787445E-01
 cg2d: Sum(rhs),rhsMax =  -1.87395314255256E-04  1.37478415903189E-01
 cg2d: Sum(rhs),rhsMax =  -1.86572852466445E-04  1.37477345770085E-01
 cg2d: Sum(rhs),rhsMax =  -1.85749796647972E-04  1.37476282384441E-01
 cg2d: Sum(rhs),rhsMax =  -1.84926153948684E-04  1.37475225742546E-01
 cg2d: Sum(rhs),rhsMax =  -1.84101931411333E-04  1.37474175840672E-01
 cg2d: Sum(rhs),rhsMax =  -1.83277135865014E-04  1.37473132675071E-01
 cg2d: Sum(rhs),rhsMax =  -1.82207773521435E-04  1.37472096135373E-01
 cg2d: Sum(rhs),rhsMax =  -1.81138027650981E-04  1.37471066451704E-01
 cg2d: Sum(rhs),rhsMax =  -1.80067928004281E-04  1.37470043496057E-01
 cg2d: Sum(rhs),rhsMax =  -1.78997504304273E-04  1.37469027247811E-01
 cg2d: Sum(rhs),rhsMax =  -1.77926775371788E-04  1.37468017718253E-01
 cg2d: Sum(rhs),rhsMax =  -1.76855750864484E-04  1.37467014903853E-01
 cg2d: Sum(rhs),rhsMax =  -1.75784434888964E-04  1.37466018798462E-01
 cg2d: Sum(rhs),rhsMax =  -1.74712830702455E-04  1.37465029397529E-01
 cg2d: Sum(rhs),rhsMax =  -1.73640943917583E-04  1.37464046697721E-01
 cg2d: Sum(rhs),rhsMax =  -1.72568782655766E-04  1.37463070695777E-01
 cg2d: Sum(rhs),rhsMax =  -1.71496356694212E-04  1.37462101388058E-01
 cg2d: Sum(rhs),rhsMax =  -1.70423675900662E-04  1.37461138770568E-01
 cg2d: Sum(rhs),rhsMax =  -1.69350749561724E-04  1.37460182839167E-01
 cg2d: Sum(rhs),rhsMax =  -1.68277586343440E-04  1.37459233589711E-01
 cg2d: Sum(rhs),rhsMax =  -1.67204194129084E-04  1.37458291018103E-01
 cg2d: Sum(rhs),rhsMax =  -1.66130581254803E-04  1.37457355120282E-01
 cg2d: Sum(rhs),rhsMax =  -1.65056755628997E-04  1.37456425892201E-01
 cg2d: Sum(rhs),rhsMax =  -1.63982725705153E-04  1.37455503329794E-01
 cg2d: Sum(rhs),rhsMax =  -1.62908499798307E-04  1.37454587428982E-01
 cg2d: Sum(rhs),rhsMax =  -1.61834086221356E-04  1.37453678185663E-01
 cg2d: Sum(rhs),rhsMax =  -1.60759493392663E-04  1.37452775595725E-01
 cg2d: Sum(rhs),rhsMax =  -1.59684729595507E-04  1.37451879655034E-01
 cg2d: Sum(rhs),rhsMax =  -1.58609802758360E-04  1.37450990359440E-01
 cg2d: Sum(rhs),rhsMax =  -1.57534721270477E-04  1.37450107704762E-01
 cg2d: Sum(rhs),rhsMax =  -1.56459493257082E-04  1.37449231686802E-01
 cg2d: Sum(rhs),rhsMax =  -1.55384126688469E-04  1.37448362301337E-01
 cg2d: Sum(rhs),rhsMax =  -1.54308629756372E-04  1.37447499544126E-01
 cg2d: Sum(rhs),rhsMax =  -1.53233010572992E-04  1.37446643410909E-01
 cg2d: Sum(rhs),rhsMax =  -1.52157277115722E-04  1.37445793897418E-01
 cg2d: Sum(rhs),rhsMax =  -1.51081437526636E-04  1.37444950999362E-01
 cg2d: Sum(rhs),rhsMax =  -1.50005499754568E-04  1.37444114712439E-01
 cg2d: Sum(rhs),rhsMax =  -1.48929471685722E-04  1.37443285032332E-01
 cg2d: Sum(rhs),rhsMax =  -1.47853361312981E-04  1.37442461954700E-01
 cg2d: Sum(rhs),rhsMax =  -1.46777176606055E-04  1.37441645475189E-01
 cg2d: Sum(rhs),rhsMax =  -1.45700925437643E-04  1.37440835589423E-01
 cg2d: Sum(rhs),rhsMax =  -1.44624615803340E-04  1.37440032293007E-01
 cg2d: Sum(rhs),rhsMax =  -1.43548255491932E-04  1.37439235581529E-01
 cg2d: Sum(rhs),rhsMax =  -1.42471852344880E-04  1.37438445450560E-01
 cg2d: Sum(rhs),rhsMax =  -1.41395414128199E-04  1.37437661895653E-01
 cg2d: Sum(rhs),rhsMax =  -1.40318948769829E-04  1.37436884912343E-01
 cg2d: Sum(rhs),rhsMax =  -1.39242463888843E-04  1.37436114496149E-01
 cg2d: Sum(rhs),rhsMax =  -1.38165967329835E-04  1.37435350642570E-01
 cg2d: Sum(rhs),rhsMax =  -1.37089466890731E-04  1.37434593347094E-01
 cg2d: Sum(rhs),rhsMax =  -1.36012970290099E-04  1.37433842605185E-01
 cg2d: Sum(rhs),rhsMax =  -1.34936485113076E-04  1.37433098412291E-01
 cg2d: Sum(rhs),rhsMax =  -1.33860019041429E-04  1.37432360763843E-01
 cg2d: Sum(rhs),rhsMax =  -1.32783579939571E-04  1.37431629655255E-01
 cg2d: Sum(rhs),rhsMax =  -1.31707175186290E-04  1.37430905081924E-01
 cg2d: Sum(rhs),rhsMax =  -1.30630812539483E-04  1.37430187039226E-01
 cg2d: Sum(rhs),rhsMax =  -1.29554499611139E-04  1.37429475522525E-01
 cg2d: Sum(rhs),rhsMax =  -1.28478243896613E-04  1.37428770527162E-01
 cg2d: Sum(rhs),rhsMax =  -1.27402053008895E-04  1.37428072048463E-01
 cg2d: Sum(rhs),rhsMax =  -1.26325934614744E-04  1.37427380081740E-01
 cg2d: Sum(rhs),rhsMax =  -1.25249896075115E-04  1.37426694622283E-01
 cg2d: Sum(rhs),rhsMax =  -1.24173945026723E-04  1.37426015665365E-01
(PID.TID 0000.0001)      cg2d_init_res =   6.08986831005722E-04
(PID.TID 0000.0001)      cg2d_iters(min,last) =      -1      73
(PID.TID 0000.0001)      cg2d_last_res =   9.53221306682457E-08
(PID.TID 0000.0001) // =======================================================
(PID.TID 0000.0001) // Begin MONITOR dynamic field statistics
(PID.TID 0000.0001) // =======================================================
(PID.TID 0000.0001) %MON time_tsnumber                =                 16272
(PID.TID 0000.0001) %MON time_secondsf                =   1.9526400000000E+07
(PID.TID 0000.0001) %MON dynstat_eta_max              =   4.4917510731295E-02
(PID.TID 0000.0001) %MON dynstat_eta_min              =  -2.1728201078211E-02
(PID.TID 0000.0001) %MON dynstat_eta_mean             =   8.4583985529748E-08
(PID.TID 0000.0001) %MON dynstat_eta_sd               =   1.6120720385848E-02
(PID.TID 0000.0001) %MON dynstat_eta_del2             =   1.7838297132958E-05
(PID.TID 0000.0001) %MON dynstat_uvel_max             =   3.0894308494376E-02
(PID.TID 0000.0001) %MON dynstat_uvel_min             =  -1.5668963207904E-02
(PID.TID 0000.0001) %MON dynstat_uvel_mean            =  -9.0079457476015E-08
(PID.TID 0000.0001) %MON dynstat_uvel_sd              =   6.5756092230433E-03
(PID.TID 0000.0001) %MON dynstat_uvel_del2            =   7.9000949764094E-06
(PID.TID 0000.0001) %MON dynstat_vvel_max             =   8.2381392618262E-02
(PID.TID 0000.0001) %MON dynstat_vvel_min             =  -3.1965314595061E-02
(PID.TID 0000.0001) %MON dynstat_vvel_mean            =   1.1886158770064E-09
(PID.TID 0000.0001) %MON dynstat_vvel_sd              =   1.4525799524207E-02
(PID.TID 0000.0001) %MON dynstat_vvel_del2            =   7.3770037931943E-05
(PID.TID 0000.0001) %MON dynstat_wvel_max             =   9.4235840206420E-09
(PID.TID 0000.0001) %MON dynstat_wvel_min             =  -6.3963740493637E-09
(PID.TID 0000.0001) %MON dynstat_wvel_mean            =  -1.6303489600331E-21
(PID.TID 0000.0001) %MON dynstat_wvel_sd              =   3.7604058391517E-09
(PID.TID 0000.0001) %MON dynstat_wvel_del2            =   1.2937550014186E-12
(PID.TID 0000.0001) %MON dynstat_theta_max            =   2.0000000000000E+01
(PID.TID 0000.0001) %MON dynstat_theta_min            =   2.0000000000000E+01
(PID.TID 0000.0001) %MON dynstat_theta_mean           =   2.0000000000000E+01
(PID.TID 0000.0001) %MON dynstat_theta_sd             =   0.0000000000000E+00
(PID.TID 0000.0001) %MON dynstat_theta_del2           =   0.0000000000000E+00
(PID.TID 0000.0001) %MON dynstat_salt_max             =   3.0000000000000E+01
(PID.TID 0000.0001) %MON dynstat_salt_min             =   3.0000000000000E+01
(PID.TID 0000.0001) %MON dynstat_salt_mean            =   3.0000000000000E+01
(PID.TID 0000.0001) %MON dynstat_salt_sd              =   0.0000000000000E+00
(PID.TID 0000.0001) %MON dynstat_salt_del2            =   0.0000000000000E+00
(PID.TID 0000.0001) %MON trAdv_CFL_u_max              =   1.8536694929676E-03
(PID.TID 0000.0001) %MON trAdv_CFL_v_max              =   4.9429283234427E-03
(PID.TID 0000.0001) %MON trAdv_CFL_w_max              =   2.2624353305713E-09
(PID.TID 0000.0001) %MON advcfl_uvel_max              =   1.8536585096625E-03
(PID.TID 0000.0001) %MON advcfl_vvel_max              =   4.9428835570957E-03
(PID.TID 0000.0001) %MON advcfl_wvel_max              =   4.5233203299082E-09
(PID.TID 0000.0001) %MON advcfl_W_hf_max              =   0.0000000000000E+00
(PID.TID 0000.0001) %MON pe_b_mean                    =   2.5493995087631E-07
(PID.TID 0000.0001) %MON ke_max                       =   3.3914672233697E-03
(PID.TID 0000.0001) %MON ke_mean                      =   1.2500009850254E-04
(PID.TID 0000.0001) %MON ke_vol                       =   7.2000000000000E+15
(PID.TID 0000.0001) %MON vort_r_min                   =  -1.5040398206198E-06
(PID.TID 0000.0001) %MON vort_r_max                   =   2.2581426302313E-06
(PID.TID 0000.0001) %MON vort_a_mean                  =   1.0600000000000E-04
(PID.TID 0000.0001) %MON vort_a_sd                    =   3.5364116920936E-06
(PID.TID 0000.0001) %MON vort_p_mean                  =   1.1130000000000E-04
(PID.TID 0000.0001) %MON vort_p_sd                    =   4.1151223803437E-05
(PID.TID 0000.0001) %MON surfExpan_theta_mean         =  -3.2606964042417E-20
(PID.TID 0000.0001) %MON surfExpan_salt_mean          =  -4.8908077587839E-20
(PID.TID 0000.0001) // =======================================================
(PID.TID 0000.0001) // End MONITOR dynamic field statistics
(PID.TID 0000.0001) // =======================================================
 cg2d: Sum(rhs),rhsMax =  -1.23098088878619E-04  1.37425343206246E-01
 cg2d: Sum(rhs),rhsMax =  -1.22022335121628E-04  1.37424677240164E-01
 cg2d: Sum(rhs),rhsMax =  -1.20946691298539E-04  1.37424017762342E-01
 cg2d: Sum(rhs),rhsMax =  -1.19871164836939E-04  1.37423364767985E-01
 cg2d: Sum(rhs),rhsMax =  -1.18795763065865E-04  1.37422718252280E-01
 cg2d: Sum(rhs),rhsMax =  -1.17720493542492E-04  1.37422078210400E-01
 cg2d: Sum(rhs),rhsMax =  -1.16645363637053E-04  1.37421444637497E-01
 cg2d: Sum(rhs),rhsMax =  -1.15570380664171E-04  1.37420817528709E-01
 cg2d: Sum(rhs),rhsMax =  -1.14495552063610E-04  1.37420196879152E-01
 cg2d: Sum(rhs),rhsMax =  -1.13420885091863E-04  1.37419582683931E-01
 cg2d: Sum(rhs),rhsMax =  -1.12346387229578E-04  1.37418974938130E-01
 cg2d: Sum(rhs),rhsMax =  -1.11272065643184E-04  1.37418373636819E-01
 cg2d: Sum(rhs),rhsMax =  -1.10197927860419E-04  1.37417778775045E-01
 cg2d: Sum(rhs),rhsMax =  -1.09123980997001E-04  1.37417190347845E-01
 cg2d: Sum(rhs),rhsMax =  -1.08050232423746E-04  1.37416608350234E-01
 cg2d: Sum(rhs),rhsMax =  -1.06976689396289E-04  1.37416032777212E-01
 cg2d: Sum(rhs),rhsMax =  -1.05903359127102E-04  1.37415463623763E-01
 cg2d: Sum(rhs),rhsMax =  -1.04724287397026E-04  1.37414900620768E-01
 cg2d: Sum(rhs),rhsMax =  -1.03545539858993E-04  1.37414344331022E-01
 cg2d: Sum(rhs),rhsMax =  -1.02367255791126E-04  1.37413794417746E-01
 cg2d: Sum(rhs),rhsMax =  -1.01189404726881E-04  1.37413250897154E-01
 cg2d: Sum(rhs),rhsMax =  -1.00011993248200E-04  1.37412713771774E-01
 cg2d: Sum(rhs),rhsMax =  -9.88350288718505E-05  1.37412183036963E-01
 cg2d: Sum(rhs),rhsMax =  -9.76585189680131E-05  1.37411658686518E-01
 cg2d: Sum(rhs),rhsMax =  -9.64824705441984E-05  1.37411140714689E-01
 cg2d: Sum(rhs),rhsMax =  -9.53068909972524E-05  1.37410629116265E-01
 cg2d: Sum(rhs),rhsMax =  -9.41317877239884E-05  1.37410123886207E-01
 cg2d: Sum(rhs),rhsMax =  -9.29571684073057E-05  1.37409625019430E-01
 cg2d: Sum(rhs),rhsMax =  -9.17830405658977E-05  1.37409132510744E-01
 cg2d: Sum(rhs),rhsMax =  -9.06094118229527E-05  1.37408646354899E-01
 cg2d: Sum(rhs),rhsMax =  -8.94362895138730E-05  1.37408166546615E-01
 cg2d: Sum(rhs),rhsMax =  -8.82636811294895E-05  1.37407693080602E-01
 cg2d: Sum(rhs),rhsMax =  -8.70915942286481E-05  1.37407225951563E-01
 cg2d: Sum(rhs),rhsMax =  -8.59200360671820E-05  1.37406765154190E-01
 cg2d: Sum(rhs),rhsMax =  -8.47490140629976E-05  1.37406310683163E-01
 cg2d: Sum(rhs),rhsMax =  -8.35785357662299E-05  1.37405862533146E-01
 cg2d: Sum(rhs),rhsMax =  -8.24086085519562E-05  1.37405420698788E-01
 cg2d: Sum(rhs),rhsMax =  -8.12392397960765E-05  1.37404985174725E-01
 cg2d: Sum(rhs),rhsMax =  -8.00704368524091E-05  1.37404555955573E-01
 cg2d: Sum(rhs),rhsMax =  -7.89022071646141E-05  1.37404133035931E-01
 cg2d: Sum(rhs),rhsMax =  -7.77345580511828E-05  1.37403716410381E-01
 cg2d: Sum(rhs),rhsMax =  -7.65674970054590E-05  1.37403306073485E-01
 cg2d: Sum(rhs),rhsMax =  -7.54010311985170E-05  1.37402902019790E-01
 cg2d: Sum(rhs),rhsMax =  -7.42351681132089E-05  1.37402504243824E-01
 cg2d: Sum(rhs),rhsMax =  -7.30699151031897E-05  1.37402112740099E-01
 cg2d: Sum(rhs),rhsMax =  -7.19052793164959E-05  1.37401727503116E-01
 cg2d: Sum(rhs),rhsMax =  -7.07412682893717E-05  1.37401348527353E-01
 cg2d: Sum(rhs),rhsMax =  -6.95778892190971E-05  1.37400975807277E-01
 cg2d: Sum(rhs),rhsMax =  -6.84151494262427E-05  1.37400609337337E-01
 cg2d: Sum(rhs),rhsMax =  -6.72530562791261E-05  1.37400249111967E-01
 cg2d: Sum(rhs),rhsMax =  -6.60916170040111E-05  1.37399895125582E-01
 cg2d: Sum(rhs),rhsMax =  -6.49308387980210E-05  1.37399547372584E-01
 cg2d: Sum(rhs),rhsMax =  -6.37707291727225E-05  1.37399205847354E-01
 cg2d: Sum(rhs),rhsMax =  -6.26112952108789E-05  1.37398870544261E-01
 cg2d: Sum(rhs),rhsMax =  -6.14525442948531E-05  1.37398541457653E-01
 cg2d: Sum(rhs),rhsMax =  -6.02944835634035E-05  1.37398218581866E-01
 cg2d: Sum(rhs),rhsMax =  -5.91371203144632E-05  1.37397901911221E-01
 cg2d: Sum(rhs),rhsMax =  -5.79804618241709E-05  1.37397591440016E-01
 cg2d: Sum(rhs),rhsMax =  -5.68245153439798E-05  1.37397287162538E-01
 cg2d: Sum(rhs),rhsMax =  -5.56692881208297E-05  1.37396989073060E-01
 cg2d: Sum(rhs),rhsMax =  -5.45147872763425E-05  1.37396697165833E-01
 cg2d: Sum(rhs),rhsMax =  -5.33610200268500E-05  1.37396411435096E-01
 cg2d: Sum(rhs),rhsMax =  -5.22079935961301E-05  1.37396131875071E-01
 cg2d: Sum(rhs),rhsMax =  -5.10557153097033E-05  1.37395858479962E-01
 cg2d: Sum(rhs),rhsMax =  -4.99041923685871E-05  1.37395591243960E-01
 cg2d: Sum(rhs),rhsMax =  -4.87534318593949E-05  1.37395330161237E-01
 cg2d: Sum(rhs),rhsMax =  -4.76034410014994E-05  1.37395075225952E-01
 cg2d: Sum(rhs),rhsMax =  -4.64542269349964E-05  1.37394826432247E-01
 cg2d: Sum(rhs),rhsMax =  -4.53057969747065E-05  1.37394583774245E-01
 cg2d: Sum(rhs),rhsMax =  -4.41581581968643E-05  1.37394347246057E-01
 cg2d: Sum(rhs),rhsMax =  -4.30113177375333E-05  1.37394116841776E-01
 cg2d: Sum(rhs),rhsMax =  -4.18652828067922E-05  1.37393892555482E-01
(PID.TID 0000.0001)      cg2d_init_res =   6.05583355206587E-04
(PID.TID 0000.0001)      cg2d_iters(min,last) =      -1      72
(PID.TID 0000.0001)      cg2d_last_res =   9.35418767818794E-08
(PID.TID 0000.0001) // =======================================================
(PID.TID 0000.0001) // Begin MONITOR dynamic field statistics
(PID.TID 0000.0001) // =======================================================
(PID.TID 0000.0001) %MON time_tsnumber                =                 16344
(PID.TID 0000.0001) %MON time_secondsf                =   1.9612800000000E+07
(PID.TID 0000.0001) %MON dynstat_eta_max              =   4.4753722248947E-02
(PID.TID 0000.0001) %MON dynstat_eta_min              =  -2.1879415388163E-02
(PID.TID 0000.0001) %MON dynstat_eta_mean             =   2.7973393737721E-08
(PID.TID 0000.0001) %MON dynstat_eta_sd               =   1.6285663230967E-02
(PID.TID 0000.0001) %MON dynstat_eta_del2             =   1.7823219942799E-05
(PID.TID 0000.0001) %MON dynstat_uvel_max             =   3.0884194616898E-02
(PID.TID 0000.0001) %MON dynstat_uvel_min             =  -1.5660781447213E-02
(PID.TID 0000.0001) %MON dynstat_uvel_mean            =  -1.0288804395850E-07
(PID.TID 0000.0001) %MON dynstat_uvel_sd              =   6.6264032362972E-03
(PID.TID 0000.0001) %MON dynstat_uvel_del2            =   7.9262583332284E-06
(PID.TID 0000.0001) %MON dynstat_vvel_max             =   8.2338815741411E-02
(PID.TID 0000.0001) %MON dynstat_vvel_min             =  -3.1888425888359E-02
(PID.TID 0000.0001) %MON dynstat_vvel_mean            =   2.0206047392585E-09
(PID.TID 0000.0001) %MON dynstat_vvel_sd              =   1.4524013291185E-02
(PID.TID 0000.0001) %MON dynstat_vvel_del2            =   7.3735998015150E-05
(PID.TID 0000.0001) %MON dynstat_wvel_max             =   9.2497705413916E-09
(PID.TID 0000.0001) %MON dynstat_wvel_min             =  -6.8086507098633E-09
(PID.TID 0000.0001) %MON dynstat_wvel_mean            =   5.4201330436222E-21
(PID.TID 0000.0001) %MON dynstat_wvel_sd              =   3.7581484897723E-09
(PID.TID 0000.0001) %MON dynstat_wvel_del2            =   1.2847134283105E-12
(PID.TID 0000.0001) %MON dynstat_theta_max            =   2.0000000000000E+01
(PID.TID 0000.0001) %MON dynstat_theta_min            =   2.0000000000000E+01
(PID.TID 0000.0001) %MON dynstat_theta_mean           =   2.0000000000000E+01
(PID.TID 0000.0001) %MON dynstat_theta_sd             =   0.0000000000000E+00
(PID.TID 0000.0001) %MON dynstat_theta_del2           =   0.0000000000000E+00
(PID.TID 0000.0001) %MON dynstat_salt_max             =   3.0000000000000E+01
(PID.TID 0000.0001) %MON dynstat_salt_min             =   3.0000000000000E+01
(PID.TID 0000.0001) %MON dynstat_salt_mean            =   3.0000000000000E+01
(PID.TID 0000.0001) %MON dynstat_salt_sd              =   0.0000000000000E+00
(PID.TID 0000.0001) %MON dynstat_salt_del2            =   0.0000000000000E+00
(PID.TID 0000.0001) %MON trAdv_CFL_u_max              =   1.8530576468024E-03
(PID.TID 0000.0001) %MON trAdv_CFL_v_max              =   4.9403555134737E-03
(PID.TID 0000.0001) %MON trAdv_CFL_w_max              =   2.2206992257998E-09
(PID.TID 0000.0001) %MON advcfl_uvel_max              =   1.8530516770139E-03
(PID.TID 0000.0001) %MON advcfl_vvel_max              =   4.9403289444846E-03
(PID.TID 0000.0001) %MON advcfl_wvel_max              =   4.4398898598680E-09
(PID.TID 0000.0001) %MON advcfl_W_hf_max              =   0.0000000000000E+00
(PID.TID 0000.0001) %MON pe_b_mean                    =   2.6018359316265E-07
(PID.TID 0000.0001) %MON ke_max                       =   3.3877410945419E-03
(PID.TID 0000.0001) %MON ke_mean                      =   1.2530428945537E-04
(PID.TID 0000.0001) %MON ke_vol                       =   7.2000000000000E+15
(PID.TID 0000.0001) %MON vort_r_min                   =  -1.5015023677705E-06
(PID.TID 0000.0001) %MON vort_r_max                   =   2.2587685380434E-06
(PID.TID 0000.0001) %MON vort_a_mean                  =   1.0600000000000E-04
(PID.TID 0000.0001) %MON vort_a_sd                    =   3.5364058050972E-06
(PID.TID 0000.0001) %MON vort_p_mean                  =   1.1130000000000E-04
(PID.TID 0000.0001) %MON vort_p_sd                    =   4.1151228818845E-05
(PID.TID 0000.0001) %MON surfExpan_theta_mean         =   1.0840071556433E-19
(PID.TID 0000.0001) %MON surfExpan_salt_mean          =   1.6259965226103E-19
(PID.TID 0000.0001) // =======================================================
(PID.TID 0000.0001) // End MONITOR dynamic field statistics
(PID.TID 0000.0001) // =======================================================
 cg2d: Sum(rhs),rhsMax =  -4.07200606050767E-05  1.37393674381234E-01
 cg2d: Sum(rhs),rhsMax =  -3.95756582890587E-05  1.37393462313081E-01
 cg2d: Sum(rhs),rhsMax =  -3.84320830053913E-05  1.37393256345050E-01
 cg2d: Sum(rhs),rhsMax =  -3.72893417491856E-05  1.37393056471158E-01
 cg2d: Sum(rhs),rhsMax =  -3.61474419237548E-05  1.37392862685401E-01
 cg2d: Sum(rhs),rhsMax =  -3.50063904159511E-05  1.37392674981765E-01
 cg2d: Sum(rhs),rhsMax =  -3.38661945395230E-05  1.37392493354214E-01
 cg2d: Sum(rhs),rhsMax =  -3.27268613953746E-05  1.37392317796702E-01
 cg2d: Sum(rhs),rhsMax =  -3.15883979705609E-05  1.37392148303162E-01
 cg2d: Sum(rhs),rhsMax =  -3.04508116504183E-05  1.37391984867517E-01
 cg2d: Sum(rhs),rhsMax =  -2.93141092363993E-05  1.37391827483670E-01
 cg2d: Sum(rhs),rhsMax =  -2.81782980436837E-05  1.37391676145508E-01
 cg2d: Sum(rhs),rhsMax =  -2.70433851866708E-05  1.37391530846905E-01
 cg2d: Sum(rhs),rhsMax =  -2.59093775864102E-05  1.37391391581720E-01
 cg2d: Sum(rhs),rhsMax =  -2.47762825665594E-05  1.37391258343792E-01
 cg2d: Sum(rhs),rhsMax =  -2.36441071249267E-05  1.37391131126950E-01
 cg2d: Sum(rhs),rhsMax =  -2.25128583983105E-05  1.37391009925003E-01
 cg2d: Sum(rhs),rhsMax =  -2.13825434377752E-05  1.37390894731747E-01
 cg2d: Sum(rhs),rhsMax =  -2.02531693787259E-05  1.37390785540962E-01
 cg2d: Sum(rhs),rhsMax =  -1.91247433055861E-05  1.37390682346412E-01
 cg2d: Sum(rhs),rhsMax =  -1.79972722286221E-05  1.37390585141845E-01
 cg2d: Sum(rhs),rhsMax =  -1.68707633477067E-05  1.37390493920995E-01
 cg2d: Sum(rhs),rhsMax =  -1.57452237256666E-05  1.37390408677580E-01
 cg2d: Sum(rhs),rhsMax =  -1.46206603650481E-05  1.37390329405304E-01
 cg2d: Sum(rhs),rhsMax =  -1.34970803962490E-05  1.37390256097851E-01
 cg2d: Sum(rhs),rhsMax =  -1.23744908471640E-05  1.37390188748897E-01
 cg2d: Sum(rhs),rhsMax =  -1.12528987702724E-05  1.37390127352096E-01
 cg2d: Sum(rhs),rhsMax =  -1.01323113772473E-05  1.37390071901089E-01
 cg2d: Sum(rhs),rhsMax =  -9.01273551734156E-06  1.37390022389503E-01
 cg2d: Sum(rhs),rhsMax =  -7.89417843747187E-06  1.37389978810950E-01
 cg2d: Sum(rhs),rhsMax =  -6.77664714754476E-06  1.37389941159023E-01
 cg2d: Sum(rhs),rhsMax =  -5.66014869011859E-06  1.37389909427305E-01
 cg2d: Sum(rhs),rhsMax =  -4.54469018883446E-06  1.37389883609358E-01
 cg2d: Sum(rhs),rhsMax =  -3.43027859066314E-06  1.37389863698735E-01
 cg2d: Sum(rhs),rhsMax =  -2.23870138401933E-06  1.37389849929199E-01
 cg2d: Sum(rhs),rhsMax =  -1.04848389668316E-06  1.37389841841010E-01
 cg2d: Sum(rhs),rhsMax =   1.40515011471005E-07  1.37389839618258E-01
 cg2d: Sum(rhs),rhsMax =   1.32823734618186E-06  1.37389843274270E-01
 cg2d: Sum(rhs),rhsMax =   2.51468136722166E-06  1.37389852804874E-01
 cg2d: Sum(rhs),rhsMax =   3.69983907595305E-06  1.37389868205460E-01
 cg2d: Sum(rhs),rhsMax =   4.88370325062246E-06  1.37389889468484E-01
 cg2d: Sum(rhs),rhsMax =   6.06626585985572E-06  1.37389916586796E-01
 cg2d: Sum(rhs),rhsMax =   7.24751915034960E-06  1.37389949553533E-01
 cg2d: Sum(rhs),rhsMax =   8.42745584421923E-06  1.37389988362103E-01
 cg2d: Sum(rhs),rhsMax =   9.60606914675397E-06  1.37390033005962E-01
 cg2d: Sum(rhs),rhsMax =   1.07833521023710E-05  1.37390083478546E-01
 cg2d: Sum(rhs),rhsMax =   1.19592976047158E-05  1.37390139773244E-01
 cg2d: Sum(rhs),rhsMax =   1.31338986762144E-05  1.37390201883406E-01
 cg2d: Sum(rhs),rhsMax =   1.43071482576595E-05  1.37390269802349E-01
 cg2d: Sum(rhs),rhsMax =   1.54790389323830E-05  1.37390343523370E-01
 cg2d: Sum(rhs),rhsMax =   1.66495636222891E-05  1.37390423039754E-01
 cg2d: Sum(rhs),rhsMax =   1.78187153776401E-05  1.37390508344772E-01
 cg2d: Sum(rhs),rhsMax =   1.89864868582320E-05  1.37390599431695E-01
 cg2d: Sum(rhs),rhsMax =   2.01528710892301E-05  1.37390696293774E-01
 cg2d: Sum(rhs),rhsMax =   2.13178609480150E-05  1.37390798924252E-01
 cg2d: Sum(rhs),rhsMax =   2.24814493588006E-05  1.37390907316353E-01
 cg2d: Sum(rhs),rhsMax =   2.36436290382541E-05  1.37391021463287E-01
 cg2d: Sum(rhs),rhsMax =   2.48043930777047E-05  1.37391141358247E-01
 cg2d: Sum(rhs),rhsMax =   2.59637342019626E-05  1.37391266994411E-01
 cg2d: Sum(rhs),rhsMax =   2.71216453640059E-05  1.37391398364941E-01
 cg2d: Sum(rhs),rhsMax =   2.82781194926628E-05  1.37391535462986E-01
 cg2d: Sum(rhs),rhsMax =   2.94331494755775E-05  1.37391678281681E-01
 cg2d: Sum(rhs),rhsMax =   3.05867281702801E-05  1.37391826814146E-01
 cg2d: Sum(rhs),rhsMax =   3.17388484025495E-05  1.37391981053486E-01
 cg2d: Sum(rhs),rhsMax =   3.28895031136483E-05  1.37392140992794E-01
 cg2d: Sum(rhs),rhsMax =   3.40386851963677E-05  1.37392306625147E-01
 cg2d: Sum(rhs),rhsMax =   3.51863874869960E-05  1.37392477943608E-01
 cg2d: Sum(rhs),rhsMax =   3.63326030314122E-05  1.37392654941223E-01
 cg2d: Sum(rhs),rhsMax =   3.74773245924729E-05  1.37392837611029E-01
 cg2d: Sum(rhs),rhsMax =   3.86205450450686E-05  1.37393025946045E-01
 cg2d: Sum(rhs),rhsMax =   3.97622573466818E-05  1.37393219939275E-01
 cg2d: Sum(rhs),rhsMax =   4.09024543810014E-05  1.37393419583712E-01
(PID.TID 0000.0001)      cg2d_init_res =   6.02246342382899E-04
(PID.TID 0000.0001)      cg2d_iters(min,last) =      -1      71
(PID.TID 0000.0001)      cg2d_last_res =   9.42843595999359E-08
(PID.TID 0000.0001) // =======================================================
(PID.TID 0000.0001) // Begin MONITOR dynamic field statistics
(PID.TID 0000.0001) // =======================================================
(PID.TID 0000.0001) %MON time_tsnumber                =                 16416
(PID.TID 0000.0001) %MON time_secondsf                =   1.9699200000000E+07
(PID.TID 0000.0001) %MON dynstat_eta_max              =   4.4630810490962E-02
(PID.TID 0000.0001) %MON dynstat_eta_min              =  -2.2013534593649E-02
(PID.TID 0000.0001) %MON dynstat_eta_mean             =  -2.8880915523701E-08
(PID.TID 0000.0001) %MON dynstat_eta_sd               =   1.6456570755769E-02
(PID.TID 0000.0001) %MON dynstat_eta_del2             =   1.7809166423875E-05
(PID.TID 0000.0001) %MON dynstat_uvel_max             =   3.0879982504888E-02
(PID.TID 0000.0001) %MON dynstat_uvel_min             =  -1.5659538337458E-02
(PID.TID 0000.0001) %MON dynstat_uvel_mean            =  -1.1408917108988E-07
(PID.TID 0000.0001) %MON dynstat_uvel_sd              =   6.6752448320231E-03
(PID.TID 0000.0001) %MON dynstat_uvel_del2            =   7.9517500842159E-06
(PID.TID 0000.0001) %MON dynstat_vvel_max             =   8.2317584275124E-02
(PID.TID 0000.0001) %MON dynstat_vvel_min             =  -3.1805092693560E-02
(PID.TID 0000.0001) %MON dynstat_vvel_mean            =   2.9033770789755E-09
(PID.TID 0000.0001) %MON dynstat_vvel_sd              =   1.4525881837203E-02
(PID.TID 0000.0001) %MON dynstat_vvel_del2            =   7.3714166588634E-05
(PID.TID 0000.0001) %MON dynstat_wvel_max             =   9.0635768204083E-09
(PID.TID 0000.0001) %MON dynstat_wvel_min             =  -7.2257074431400E-09
(PID.TID 0000.0001) %MON dynstat_wvel_mean            =   1.1267267533791E-21
(PID.TID 0000.0001) %MON dynstat_wvel_sd              =   3.7552856493345E-09
(PID.TID 0000.0001) %MON dynstat_wvel_del2            =   1.2767114995786E-12
(PID.TID 0000.0001) %MON dynstat_theta_max            =   2.0000000000000E+01
(PID.TID 0000.0001) %MON dynstat_theta_min            =   2.0000000000000E+01
(PID.TID 0000.0001) %MON dynstat_theta_mean           =   2.0000000000000E+01
(PID.TID 0000.0001) %MON dynstat_theta_sd             =   0.0000000000000E+00
(PID.TID 0000.0001) %MON dynstat_theta_del2           =   0.0000000000000E+00
(PID.TID 0000.0001) %MON dynstat_salt_max             =   3.0000000000000E+01
(PID.TID 0000.0001) %MON dynstat_salt_min             =   3.0000000000000E+01
(PID.TID 0000.0001) %MON dynstat_salt_mean            =   3.0000000000000E+01
(PID.TID 0000.0001) %MON dynstat_salt_sd              =   0.0000000000000E+00
(PID.TID 0000.0001) %MON dynstat_salt_del2            =   0.0000000000000E+00
(PID.TID 0000.0001) %MON trAdv_CFL_u_max              =   1.8528001072954E-03
(PID.TID 0000.0001) %MON trAdv_CFL_v_max              =   4.9390642749966E-03
(PID.TID 0000.0001) %MON trAdv_CFL_w_max              =   2.1760081740300E-09
(PID.TID 0000.0001) %MON advcfl_uvel_max              =   1.8527989502933E-03
(PID.TID 0000.0001) %MON advcfl_vvel_max              =   4.9390550565075E-03
(PID.TID 0000.0001) %MON advcfl_wvel_max              =   4.3505168737960E-09
(PID.TID 0000.0001) %MON advcfl_W_hf_max              =   0.0000000000000E+00
(PID.TID 0000.0001) %MON pe_b_mean                    =   2.6567316534069E-07
(PID.TID 0000.0001) %MON ke_max                       =   3.3857257100684E-03
(PID.TID 0000.0001) %MON ke_mean                      =   1.2565040055836E-04
(PID.TID 0000.0001) %MON ke_vol                       =   7.2000000000000E+15
(PID.TID 0000.0001) %MON vort_r_min                   =  -1.4989866659963E-06
(PID.TID 0000.0001) %MON vort_r_max                   =   2.2600138461185E-06
(PID.TID 0000.0001) %MON vort_a_mean                  =   1.0600000000000E-04
(PID.TID 0000.0001) %MON vort_a_sd                    =   3.5364053840244E-06
(PID.TID 0000.0001) %MON vort_p_mean                  =   1.1130000000000E-04
(PID.TID 0000.0001) %MON vort_p_sd                    =   4.1151231482930E-05
(PID.TID 0000.0001) %MON surfExpan_theta_mean         =   2.2536007627928E-20
(PID.TID 0000.0001) %MON surfExpan_salt_mean          =   3.3803518009437E-20
(PID.TID 0000.0001) // =======================================================
(PID.TID 0000.0001) // End MONITOR dynamic field statistics
(PID.TID 0000.0001) // =======================================================
 cg2d: Sum(rhs),rhsMax =   4.20411289846845E-05  1.37393624872330E-01
 cg2d: Sum(rhs),rhsMax =   4.31782741312755E-05  1.37393835798094E-01
 cg2d: Sum(rhs),rhsMax =   4.43138826414250E-05  1.37394052353951E-01
 cg2d: Sum(rhs),rhsMax =   4.54479473507748E-05  1.37394274532835E-01
 cg2d: Sum(rhs),rhsMax =   4.65804614110622E-05  1.37394502327667E-01
 cg2d: Sum(rhs),rhsMax =   4.77114173965450E-05  1.37394735731353E-01
 cg2d: Sum(rhs),rhsMax =   4.88408084265406E-05  1.37394974736783E-01
 cg2d: Sum(rhs),rhsMax =   4.99686272324258E-05  1.37395219336836E-01
 cg2d: Sum(rhs),rhsMax =   5.10948668072612E-05  1.37395469524375E-01
 cg2d: Sum(rhs),rhsMax =   5.22195198987881E-05  1.37395725292252E-01
 cg2d: Sum(rhs),rhsMax =   5.33425795880595E-05  1.37395986633298E-01
 cg2d: Sum(rhs),rhsMax =   5.44640386458935E-05  1.37396253540338E-01
 cg2d: Sum(rhs),rhsMax =   5.55838899310426E-05  1.37396526006179E-01
 cg2d: Sum(rhs),rhsMax =   5.67021264306650E-05  1.37396804023614E-01
 cg2d: Sum(rhs),rhsMax =   5.78187409863316E-05  1.37397087585423E-01
 cg2d: Sum(rhs),rhsMax =   5.89337264852649E-05  1.37397376684371E-01
 cg2d: Sum(rhs),rhsMax =   6.00470757937703E-05  1.37397671313211E-01
 cg2d: Sum(rhs),rhsMax =   6.11587818032397E-05  1.37397971464682E-01
 cg2d: Sum(rhs),rhsMax =   6.22688374643174E-05  1.37398277131506E-01
 cg2d: Sum(rhs),rhsMax =   6.33772355431534E-05  1.37398588306395E-01
 cg2d: Sum(rhs),rhsMax =   6.44839689889886E-05  1.37398904982046E-01
 cg2d: Sum(rhs),rhsMax =   6.55890306982239E-05  1.37399227151142E-01
 cg2d: Sum(rhs),rhsMax =   6.66924135952086E-05  1.37399554806350E-01
 cg2d: Sum(rhs),rhsMax =   6.77941103587468E-05  1.37399887940328E-01
 cg2d: Sum(rhs),rhsMax =   6.88941140985534E-05  1.37400226545717E-01
 cg2d: Sum(rhs),rhsMax =   6.99924175829236E-05  1.37400570615146E-01
 cg2d: Sum(rhs),rhsMax =   7.10890137444161E-05  1.37400920141228E-01
 cg2d: Sum(rhs),rhsMax =   7.21838954373874E-05  1.37401275116566E-01
 cg2d: Sum(rhs),rhsMax =   7.32770555656364E-05  1.37401635533746E-01
 cg2d: Sum(rhs),rhsMax =   7.43684869414490E-05  1.37402001385342E-01
 cg2d: Sum(rhs),rhsMax =   7.54581823983183E-05  1.37402372663915E-01
 cg2d: Sum(rhs),rhsMax =   7.65461349303475E-05  1.37402749362012E-01
 cg2d: Sum(rhs),rhsMax =   7.76323373947400E-05  1.37403131472166E-01
 cg2d: Sum(rhs),rhsMax =   7.87167825850085E-05  1.37403518986896E-01
 cg2d: Sum(rhs),rhsMax =   7.97994634937757E-05  1.37403911898711E-01
 cg2d: Sum(rhs),rhsMax =   8.08803728755483E-05  1.37404310200101E-01
 cg2d: Sum(rhs),rhsMax =   8.19595036827495E-05  1.37404713883549E-01
 cg2d: Sum(rhs),rhsMax =   8.30368487017112E-05  1.37405122941518E-01
 cg2d: Sum(rhs),rhsMax =   8.41124008109703E-05  1.37405537366463E-01
 cg2d: Sum(rhs),rhsMax =   8.51861529658224E-05  1.37405957150824E-01
 cg2d: Sum(rhs),rhsMax =   8.62580979617842E-05  1.37406382287028E-01
 cg2d: Sum(rhs),rhsMax =   8.73282286667255E-05  1.37406812767485E-01
 cg2d: Sum(rhs),rhsMax =   8.83965379446456E-05  1.37407248584600E-01
 cg2d: Sum(rhs),rhsMax =   8.94630186581381E-05  1.37407689730756E-01
 cg2d: Sum(rhs),rhsMax =   9.05276637424516E-05  1.37408136198326E-01
 cg2d: Sum(rhs),rhsMax =   9.15904658976814E-05  1.37408587979674E-01
 cg2d: Sum(rhs),rhsMax =   9.26514181372497E-05  1.37409045067146E-01
 cg2d: Sum(rhs),rhsMax =   9.37105131246603E-05  1.37409507453075E-01
 cg2d: Sum(rhs),rhsMax =   9.47677439075050E-05  1.37409975129783E-01
 cg2d: Sum(rhs),rhsMax =   9.58231033672654E-05  1.37410448089579E-01
 cg2d: Sum(rhs),rhsMax =   9.68765842399109E-05  1.37410926324757E-01
 cg2d: Sum(rhs),rhsMax =   9.79281793263478E-05  1.37411409827599E-01
 cg2d: Sum(rhs),rhsMax =   9.89778816373101E-05  1.37411898590376E-01
 cg2d: Sum(rhs),rhsMax =   1.00025683953503E-04  1.37412392605342E-01
 cg2d: Sum(rhs),rhsMax =   1.01071579001274E-04  1.37412891864741E-01
 cg2d: Sum(rhs),rhsMax =   1.02115559799783E-04  1.37413396360803E-01
 cg2d: Sum(rhs),rhsMax =   1.03157619041761E-04  1.37413906085747E-01
 cg2d: Sum(rhs),rhsMax =   1.04197749743883E-04  1.37414421031775E-01
 cg2d: Sum(rhs),rhsMax =   1.05235944613464E-04  1.37414941191083E-01
 cg2d: Sum(rhs),rhsMax =   1.06272196568923E-04  1.37415466555847E-01
 cg2d: Sum(rhs),rhsMax =   1.07306498458427E-04  1.37415997118233E-01
 cg2d: Sum(rhs),rhsMax =   1.08338842993996E-04  1.37416532870397E-01
 cg2d: Sum(rhs),rhsMax =   1.09369223207843E-04  1.37417073804476E-01
 cg2d: Sum(rhs),rhsMax =   1.10397631772657E-04  1.37417619912603E-01
 cg2d: Sum(rhs),rhsMax =   1.11424061590829E-04  1.37418171186890E-01
 cg2d: Sum(rhs),rhsMax =   1.12448505484406E-04  1.37418727619442E-01
 cg2d: Sum(rhs),rhsMax =   1.13470956328772E-04  1.37419289202347E-01
 cg2d: Sum(rhs),rhsMax =   1.14491406831971E-04  1.37419855927683E-01
 cg2d: Sum(rhs),rhsMax =   1.15509849951541E-04  1.37420427787518E-01
 cg2d: Sum(rhs),rhsMax =   1.16526278452433E-04  1.37421004773901E-01
 cg2d: Sum(rhs),rhsMax =   1.17540685140687E-04  1.37421586878874E-01
 cg2d: Sum(rhs),rhsMax =   1.18553062953025E-04  1.37422174094464E-01
(PID.TID 0000.0001)      cg2d_init_res =   5.98971749359651E-04
(PID.TID 0000.0001)      cg2d_iters(min,last) =      -1      71
(PID.TID 0000.0001)      cg2d_last_res =   8.33631975129046E-08
(PID.TID 0000.0001) // =======================================================
(PID.TID 0000.0001) // Begin MONITOR dynamic field statistics
(PID.TID 0000.0001) // =======================================================
(PID.TID 0000.0001) %MON time_tsnumber                =                 16488
(PID.TID 0000.0001) %MON time_secondsf                =   1.9785600000000E+07
(PID.TID 0000.0001) %MON dynstat_eta_max              =   4.4550070345127E-02
(PID.TID 0000.0001) %MON dynstat_eta_min              =  -2.2128563169281E-02
(PID.TID 0000.0001) %MON dynstat_eta_mean             =  -8.2153669075388E-08
(PID.TID 0000.0001) %MON dynstat_eta_sd               =   1.6630717303590E-02
(PID.TID 0000.0001) %MON dynstat_eta_del2             =   1.7796278064542E-05
(PID.TID 0000.0001) %MON dynstat_uvel_max             =   3.0881385710835E-02
(PID.TID 0000.0001) %MON dynstat_uvel_min             =  -1.5668962160312E-02
(PID.TID 0000.0001) %MON dynstat_uvel_mean            =  -1.2354344729698E-07
(PID.TID 0000.0001) %MON dynstat_uvel_sd              =   6.7213891974886E-03
(PID.TID 0000.0001) %MON dynstat_uvel_del2            =   7.9760095199899E-06
(PID.TID 0000.0001) %MON dynstat_vvel_max             =   8.2316541166469E-02
(PID.TID 0000.0001) %MON dynstat_vvel_min             =  -3.1723804855251E-02
(PID.TID 0000.0001) %MON dynstat_vvel_mean            =   3.8264207087952E-09
(PID.TID 0000.0001) %MON dynstat_vvel_sd              =   1.4531222644087E-02
(PID.TID 0000.0001) %MON dynstat_vvel_del2            =   7.3704436524516E-05
(PID.TID 0000.0001) %MON dynstat_wvel_max             =   8.8656942286616E-09
(PID.TID 0000.0001) %MON dynstat_wvel_min             =  -7.6070116294432E-09
(PID.TID 0000.0001) %MON dynstat_wvel_mean            =  -6.2171440933728E-22
(PID.TID 0000.0001) %MON dynstat_wvel_sd              =   3.7512508143762E-09
(PID.TID 0000.0001) %MON dynstat_wvel_del2            =   1.2664658991385E-12
(PID.TID 0000.0001) %MON dynstat_theta_max            =   2.0000000000000E+01
(PID.TID 0000.0001) %MON dynstat_theta_min            =   2.0000000000000E+01
(PID.TID 0000.0001) %MON dynstat_theta_mean           =   2.0000000000000E+01
(PID.TID 0000.0001) %MON dynstat_theta_sd             =   0.0000000000000E+00
(PID.TID 0000.0001) %MON dynstat_theta_del2           =   0.0000000000000E+00
(PID.TID 0000.0001) %MON dynstat_salt_max             =   3.0000000000000E+01
(PID.TID 0000.0001) %MON dynstat_salt_min             =   3.0000000000000E+01
(PID.TID 0000.0001) %MON dynstat_salt_mean            =   3.0000000000000E+01
(PID.TID 0000.0001) %MON dynstat_salt_sd              =   0.0000000000000E+00
(PID.TID 0000.0001) %MON dynstat_salt_del2            =   0.0000000000000E+00
(PID.TID 0000.0001) %MON trAdv_CFL_u_max              =   1.8528797617214E-03
(PID.TID 0000.0001) %MON trAdv_CFL_v_max              =   4.9389854132377E-03
(PID.TID 0000.0001) %MON trAdv_CFL_w_max              =   2.1285251435358E-09
(PID.TID 0000.0001) %MON advcfl_uvel_max              =   1.8528831426501E-03
(PID.TID 0000.0001) %MON advcfl_vvel_max              =   4.9389924699881E-03
(PID.TID 0000.0001) %MON advcfl_wvel_max              =   4.2555332297576E-09
(PID.TID 0000.0001) %MON advcfl_W_hf_max              =   0.0000000000000E+00
(PID.TID 0000.0001) %MON pe_b_mean                    =   2.7132572363593E-07
(PID.TID 0000.0001) %MON ke_max                       =   3.3853268466327E-03
(PID.TID 0000.0001) %MON ke_mean                      =   1.2603063960994E-04
(PID.TID 0000.0001) %MON ke_vol                       =   7.2000000000000E+15
(PID.TID 0000.0001) %MON vort_r_min                   =  -1.4965110216502E-06
(PID.TID 0000.0001) %MON vort_r_max                   =   2.2617727349123E-06
(PID.TID 0000.0001) %MON vort_a_mean                  =   1.0600000000000E-04
(PID.TID 0000.0001) %MON vort_a_sd                    =   3.5364101843590E-06
(PID.TID 0000.0001) %MON vort_p_mean                  =   1.1130000000000E-04
(PID.TID 0000.0001) %MON vort_p_sd                    =   4.1151231349938E-05
(PID.TID 0000.0001) %MON surfExpan_theta_mean         =  -1.2432604328754E-20
(PID.TID 0000.0001) %MON surfExpan_salt_mean          =  -1.8649379571498E-20
(PID.TID 0000.0001) // =======================================================
(PID.TID 0000.0001) // End MONITOR dynamic field statistics
(PID.TID 0000.0001) // =======================================================
 cg2d: Sum(rhs),rhsMax =   1.19563404563135E-04  1.37422766412686E-01
 cg2d: Sum(rhs),rhsMax =   1.20639958429157E-04  1.37423363680233E-01
 cg2d: Sum(rhs),rhsMax =   1.21714310480958E-04  1.37423966194494E-01
 cg2d: Sum(rhs),rhsMax =   1.22786329761554E-04  1.37424573778781E-01
 cg2d: Sum(rhs),rhsMax =   1.23856047176116E-04  1.37425186430350E-01
 cg2d: Sum(rhs),rhsMax =   1.24923459575764E-04  1.37425804144865E-01
 cg2d: Sum(rhs),rhsMax =   1.25988560889597E-04  1.37426426915485E-01
 cg2d: Sum(rhs),rhsMax =   1.27051344080841E-04  1.37427054733668E-01
 cg2d: Sum(rhs),rhsMax =   1.28111801217408E-04  1.37427687590551E-01
 cg2d: Sum(rhs),rhsMax =   1.29169924432423E-04  1.37428325477549E-01
 cg2d: Sum(rhs),rhsMax =   1.30225706568767E-04  1.37428968386393E-01
 cg2d: Sum(rhs),rhsMax =   1.31279140680025E-04  1.37429616309000E-01
 cg2d: Sum(rhs),rhsMax =   1.32330219968652E-04  1.37430269237338E-01
 cg2d: Sum(rhs),rhsMax =   1.33378937506123E-04  1.37430927163350E-01
 cg2d: Sum(rhs),rhsMax =   1.34425286268938E-04  1.37431590078927E-01
 cg2d: Sum(rhs),rhsMax =   1.35469259157882E-04  1.37432257975906E-01
 cg2d: Sum(rhs),rhsMax =   1.36510849067995E-04  1.37432930846088E-01
 cg2d: Sum(rhs),rhsMax =   1.37550048911741E-04  1.37433608681263E-01
 cg2d: Sum(rhs),rhsMax =   1.38586851580768E-04  1.37434291473212E-01
 cg2d: Sum(rhs),rhsMax =   1.39621250021073E-04  1.37434979213718E-01
 cg2d: Sum(rhs),rhsMax =   1.40653237322391E-04  1.37435671894553E-01
 cg2d: Sum(rhs),rhsMax =   1.41682806213856E-04  1.37436369507484E-01
 cg2d: Sum(rhs),rhsMax =   1.42709949710672E-04  1.37437072044259E-01
 cg2d: Sum(rhs),rhsMax =   1.43734660784820E-04  1.37437779496616E-01
 cg2d: Sum(rhs),rhsMax =   1.44756932373967E-04  1.37438491856277E-01
 cg2d: Sum(rhs),rhsMax =   1.45776757337170E-04  1.37439209114954E-01
 cg2d: Sum(rhs),rhsMax =   1.46794128644131E-04  1.37439931264345E-01
 cg2d: Sum(rhs),rhsMax =   1.47809039196202E-04  1.37440658296141E-01
 cg2d: Sum(rhs),rhsMax =   1.48821481985070E-04  1.37441390202020E-01
 cg2d: Sum(rhs),rhsMax =   1.49831449800400E-04  1.37442126973647E-01
 cg2d: Sum(rhs),rhsMax =   1.50838935700494E-04  1.37442868602675E-01
 cg2d: Sum(rhs),rhsMax =   1.51843932604348E-04  1.37443615080747E-01
 cg2d: Sum(rhs),rhsMax =   1.52846433368169E-04  1.37444366399493E-01
 cg2d: Sum(rhs),rhsMax =   1.53846430968952E-04  1.37445122550531E-01
 cg2d: Sum(rhs),rhsMax =   1.54843918304316E-04  1.37445883525471E-01
 cg2d: Sum(rhs),rhsMax =   1.55838888296489E-04  1.37446649315906E-01
 cg2d: Sum(rhs),rhsMax =   1.56831333961696E-04  1.37447419913420E-01
 cg2d: Sum(rhs),rhsMax =   1.57821248143563E-04  1.37448195309588E-01
 cg2d: Sum(rhs),rhsMax =   1.58808623682968E-04  1.37448975495970E-01
 cg2d: Sum(rhs),rhsMax =   1.59793453646226E-04  1.37449760464118E-01
 cg2d: Sum(rhs),rhsMax =   1.60775730923628E-04  1.37450550205569E-01
 cg2d: Sum(rhs),rhsMax =   1.61755448385698E-04  1.37451344711849E-01
 cg2d: Sum(rhs),rhsMax =   1.62732599055879E-04  1.37452143974476E-01
 cg2d: Sum(rhs),rhsMax =   1.63707175776685E-04  1.37452947984954E-01
 cg2d: Sum(rhs),rhsMax =   1.64679171397845E-04  1.37453756734776E-01
 cg2d: Sum(rhs),rhsMax =   1.65648579076321E-04  1.37454570215425E-01
 cg2d: Sum(rhs),rhsMax =   1.66615391478825E-04  1.37455388418370E-01
 cg2d: Sum(rhs),rhsMax =   1.67579601699447E-04  1.37456211335073E-01
 cg2d: Sum(rhs),rhsMax =   1.68541202544403E-04  1.37457038956980E-01
 cg2d: Sum(rhs),rhsMax =   1.69500187010674E-04  1.37457871275529E-01
 cg2d: Sum(rhs),rhsMax =   1.70456548052782E-04  1.37458708282147E-01
 cg2d: Sum(rhs),rhsMax =   1.71410278466263E-04  1.37459549968249E-01
 cg2d: Sum(rhs),rhsMax =   1.72361371270466E-04  1.37460396325238E-01
 cg2d: Sum(rhs),rhsMax =   1.73309819382531E-04  1.37461247344509E-01
 cg2d: Sum(rhs),rhsMax =   1.74255615715822E-04  1.37462103017441E-01
 cg2d: Sum(rhs),rhsMax =   1.75198753063279E-04  1.37462963335410E-01
 cg2d: Sum(rhs),rhsMax =   1.76139224619082E-04  1.37463828289769E-01
 cg2d: Sum(rhs),rhsMax =   1.77077023018709E-04  1.37464697871872E-01
 cg2d: Sum(rhs),rhsMax =   1.78012141340622E-04  1.37465572073057E-01
 cg2d: Sum(rhs),rhsMax =   1.78944572522755E-04  1.37466450884649E-01
 cg2d: Sum(rhs),rhsMax =   1.79874309517556E-04  1.37467334297968E-01
 cg2d: Sum(rhs),rhsMax =   1.80801345135280E-04  1.37468222304317E-01
 cg2d: Sum(rhs),rhsMax =   1.81725672401367E-04  1.37469114894990E-01
 cg2d: Sum(rhs),rhsMax =   1.82647284255962E-04  1.37470012061274E-01
 cg2d: Sum(rhs),rhsMax =   1.83566173576940E-04  1.37470913794441E-01
 cg2d: Sum(rhs),rhsMax =   1.84482333259535E-04  1.37471820085754E-01
 cg2d: Sum(rhs),rhsMax =   1.85395756300855E-04  1.37472730926465E-01
 cg2d: Sum(rhs),rhsMax =   1.86306435558401E-04  1.37473646307815E-01
 cg2d: Sum(rhs),rhsMax =   1.87214364074166E-04  1.37474566221035E-01
 cg2d: Sum(rhs),rhsMax =   1.88119534693494E-04  1.37475490657345E-01
 cg2d: Sum(rhs),rhsMax =   1.89021940406322E-04  1.37476419607956E-01
 cg2d: Sum(rhs),rhsMax =   1.89921574107381E-04  1.37477353064065E-01
(PID.TID 0000.0001)      cg2d_init_res =   5.95755001716400E-04
(PID.TID 0000.0001)      cg2d_iters(min,last) =      -1      70
(PID.TID 0000.0001)      cg2d_last_res =   8.79042135820209E-08
(PID.TID 0000.0001) // =======================================================
(PID.TID 0000.0001) // Begin MONITOR dynamic field statistics
(PID.TID 0000.0001) // =======================================================
(PID.TID 0000.0001) %MON time_tsnumber                =                 16560
(PID.TID 0000.0001) %MON time_secondsf                =   1.9872000000000E+07
(PID.TID 0000.0001) %MON dynstat_eta_max              =   4.4522929534967E-02
(PID.TID 0000.0001) %MON dynstat_eta_min              =  -2.2222806195471E-02
(PID.TID 0000.0001) %MON dynstat_eta_mean             =  -1.3116695735443E-07
(PID.TID 0000.0001) %MON dynstat_eta_sd               =   1.6805439494710E-02
(PID.TID 0000.0001) %MON dynstat_eta_del2             =   1.7784672259999E-05
(PID.TID 0000.0001) %MON dynstat_uvel_max             =   3.0888031899369E-02
(PID.TID 0000.0001) %MON dynstat_uvel_min             =  -1.5685776847088E-02
(PID.TID 0000.0001) %MON dynstat_uvel_mean            =  -1.3113605593571E-07
(PID.TID 0000.0001) %MON dynstat_uvel_sd              =   6.7641536383558E-03
(PID.TID 0000.0001) %MON dynstat_uvel_del2            =   7.9985157093964E-06
(PID.TID 0000.0001) %MON dynstat_vvel_max             =   8.2334267328102E-02
(PID.TID 0000.0001) %MON dynstat_vvel_min             =  -3.1639015660452E-02
(PID.TID 0000.0001) %MON dynstat_vvel_mean            =   4.7784521550016E-09
(PID.TID 0000.0001) %MON dynstat_vvel_sd              =   1.4539801291702E-02
(PID.TID 0000.0001) %MON dynstat_vvel_del2            =   7.3706509918277E-05
(PID.TID 0000.0001) %MON dynstat_wvel_max             =   8.6601729147515E-09
(PID.TID 0000.0001) %MON dynstat_wvel_min             =  -7.9878570078290E-09
(PID.TID 0000.0001) %MON dynstat_wvel_mean            =   9.3028647698803E-22
(PID.TID 0000.0001) %MON dynstat_wvel_sd              =   3.7455755204847E-09
(PID.TID 0000.0001) %MON dynstat_wvel_del2            =   1.2615189998529E-12
(PID.TID 0000.0001) %MON dynstat_theta_max            =   2.0000000000000E+01
(PID.TID 0000.0001) %MON dynstat_theta_min            =   2.0000000000000E+01
(PID.TID 0000.0001) %MON dynstat_theta_mean           =   2.0000000000000E+01
(PID.TID 0000.0001) %MON dynstat_theta_sd             =   0.0000000000000E+00
(PID.TID 0000.0001) %MON dynstat_theta_del2           =   0.0000000000000E+00
(PID.TID 0000.0001) %MON dynstat_salt_max             =   3.0000000000000E+01
(PID.TID 0000.0001) %MON dynstat_salt_min             =   3.0000000000000E+01
(PID.TID 0000.0001) %MON dynstat_salt_mean            =   3.0000000000000E+01
(PID.TID 0000.0001) %MON dynstat_salt_sd              =   0.0000000000000E+00
(PID.TID 0000.0001) %MON dynstat_salt_del2            =   0.0000000000000E+00
(PID.TID 0000.0001) %MON trAdv_CFL_u_max              =   1.8532743388271E-03
(PID.TID 0000.0001) %MON trAdv_CFL_v_max              =   4.9400339912698E-03
(PID.TID 0000.0001) %MON trAdv_CFL_w_max              =   2.0792004467687E-09
(PID.TID 0000.0001) %MON advcfl_uvel_max              =   1.8532819139621E-03
(PID.TID 0000.0001) %MON advcfl_vvel_max              =   4.9400560396861E-03
(PID.TID 0000.0001) %MON advcfl_wvel_max              =   4.1568829990807E-09
(PID.TID 0000.0001) %MON advcfl_W_hf_max              =   0.0000000000000E+00
(PID.TID 0000.0001) %MON pe_b_mean                    =   2.7705676349163E-07
(PID.TID 0000.0001) %MON ke_max                       =   3.3864301888334E-03
(PID.TID 0000.0001) %MON ke_mean                      =   1.2643680139749E-04
(PID.TID 0000.0001) %MON ke_vol                       =   7.2000000000000E+15
(PID.TID 0000.0001) %MON vort_r_min                   =  -1.4940921179858E-06
(PID.TID 0000.0001) %MON vort_r_max                   =   2.2639823802106E-06
(PID.TID 0000.0001) %MON vort_a_mean                  =   1.0600000000000E-04
(PID.TID 0000.0001) %MON vort_a_sd                    =   3.5364198838373E-06
(PID.TID 0000.0001) %MON vort_p_mean                  =   1.1130000000000E-04
(PID.TID 0000.0001) %MON vort_p_sd                    =   4.1151228042645E-05
(PID.TID 0000.0001) %MON surfExpan_theta_mean         =   1.8605897069948E-20
(PID.TID 0000.0001) %MON surfExpan_salt_mean          =   2.7908539676799E-20
(PID.TID 0000.0001) // =======================================================
(PID.TID 0000.0001) // End MONITOR dynamic field statistics
(PID.TID 0000.0001) // =======================================================
 cg2d: Sum(rhs),rhsMax =   1.90818428711817E-04  1.37478291016861E-01
 cg2d: Sum(rhs),rhsMax =   1.91712497312132E-04  1.37479233457523E-01
 cg2d: Sum(rhs),rhsMax =   1.92603772662151E-04  1.37480180377218E-01
 cg2d: Sum(rhs),rhsMax =   1.93492247862375E-04  1.37481131767104E-01
 cg2d: Sum(rhs),rhsMax =   1.94377915687534E-04  1.37482087618327E-01
 cg2d: Sum(rhs),rhsMax =   1.95260769169606E-04  1.37483047922023E-01
 cg2d: Sum(rhs),rhsMax =   1.96140801260722E-04  1.37484012669319E-01
 cg2d: Sum(rhs),rhsMax =   1.97018004872820E-04  1.37484981851331E-01
 cg2d: Sum(rhs),rhsMax =   1.97892373109559E-04  1.37485955459163E-01
 cg2d: Sum(rhs),rhsMax =   1.98763898573413E-04  1.37486933483912E-01
 cg2d: Sum(rhs),rhsMax =   1.99686997292440E-04  1.37487916237676E-01
 cg2d: Sum(rhs),rhsMax =   2.00606952904255E-04  1.37488903094569E-01
 cg2d: Sum(rhs),rhsMax =   2.01523836133407E-04  1.37489894317653E-01
 cg2d: Sum(rhs),rhsMax =   2.02437604527826E-04  1.37490889919747E-01
 cg2d: Sum(rhs),rhsMax =   2.03348252229868E-04  1.37491889893726E-01
 cg2d: Sum(rhs),rhsMax =   2.04255773737995E-04  1.37492894232744E-01
 cg2d: Sum(rhs),rhsMax =   2.05160163755366E-04  1.37493902927451E-01
 cg2d: Sum(rhs),rhsMax =   2.06061415113473E-04  1.37494915968076E-01
 cg2d: Sum(rhs),rhsMax =   2.06959520688626E-04  1.37495933344975E-01
 cg2d: Sum(rhs),rhsMax =   2.07854472920727E-04  1.37496955048881E-01
 cg2d: Sum(rhs),rhsMax =   2.08746265007775E-04  1.37497981070797E-01
 cg2d: Sum(rhs),rhsMax =   2.09634889837425E-04  1.37499011401831E-01
 cg2d: Sum(rhs),rhsMax =   2.10520340650446E-04  1.37500046033076E-01
 cg2d: Sum(rhs),rhsMax =   2.11402610549667E-04  1.37501084955553E-01
 cg2d: Sum(rhs),rhsMax =   2.12281692435990E-04  1.37502128160214E-01
 cg2d: Sum(rhs),rhsMax =   2.13157579435525E-04  1.37503175637972E-01
 cg2d: Sum(rhs),rhsMax =   2.14030264561326E-04  1.37504227379722E-01
 cg2d: Sum(rhs),rhsMax =   2.14899740915514E-04  1.37505283376361E-01
 cg2d: Sum(rhs),rhsMax =   2.15766001508704E-04  1.37506343618792E-01
 cg2d: Sum(rhs),rhsMax =   2.16629039387633E-04  1.37507408097916E-01
 cg2d: Sum(rhs),rhsMax =   2.17488847724854E-04  1.37508476804625E-01
 cg2d: Sum(rhs),rhsMax =   2.18345419520070E-04  1.37509549729802E-01
 cg2d: Sum(rhs),rhsMax =   2.19198747893199E-04  1.37510626864311E-01
 cg2d: Sum(rhs),rhsMax =   2.20048825958961E-04  1.37511708199011E-01
 cg2d: Sum(rhs),rhsMax =   2.20895646797801E-04  1.37512793724748E-01
 cg2d: Sum(rhs),rhsMax =   2.21739203391146E-04  1.37513883432359E-01
 cg2d: Sum(rhs),rhsMax =   2.22579489025960E-04  1.37514977312673E-01
 cg2d: Sum(rhs),rhsMax =   2.23416496726908E-04  1.37516075356510E-01
 cg2d: Sum(rhs),rhsMax =   2.24250219664440E-04  1.37517177554682E-01
 cg2d: Sum(rhs),rhsMax =   2.25080650840340E-04  1.37518283897990E-01
 cg2d: Sum(rhs),rhsMax =   2.25907783611625E-04  1.37519394377224E-01
 cg2d: Sum(rhs),rhsMax =   2.26731610865062E-04  1.37520508983165E-01
 cg2d: Sum(rhs),rhsMax =   2.27552126024606E-04  1.37521627706588E-01
 cg2d: Sum(rhs),rhsMax =   2.28369322042513E-04  1.37522750538254E-01
 cg2d: Sum(rhs),rhsMax =   2.29183192040982E-04  1.37523877468917E-01
 cg2d: Sum(rhs),rhsMax =   2.29993729310497E-04  1.37525008489324E-01
 cg2d: Sum(rhs),rhsMax =   2.30800927026182E-04  1.37526143590209E-01
 cg2d: Sum(rhs),rhsMax =   2.31604778236831E-04  1.37527282762299E-01
 cg2d: Sum(rhs),rhsMax =   2.32405276294576E-04  1.37528425996312E-01
 cg2d: Sum(rhs),rhsMax =   2.33202414234190E-04  1.37529573282956E-01
 cg2d: Sum(rhs),rhsMax =   2.33996185484212E-04  1.37530724612929E-01
 cg2d: Sum(rhs),rhsMax =   2.34786583044525E-04  1.37531879976923E-01
 cg2d: Sum(rhs),rhsMax =   2.35573600126955E-04  1.37533039365617E-01
 cg2d: Sum(rhs),rhsMax =   2.36357230113344E-04  1.37534202769685E-01
 cg2d: Sum(rhs),rhsMax =   2.37137466106196E-04  1.37535370179790E-01
 cg2d: Sum(rhs),rhsMax =   2.37914301469517E-04  1.37536541586584E-01
 cg2d: Sum(rhs),rhsMax =   2.38687729331811E-04  1.37537716980714E-01
 cg2d: Sum(rhs),rhsMax =   2.39457743029737E-04  1.37538896352816E-01
 cg2d: Sum(rhs),rhsMax =   2.40224335845615E-04  1.37540079693518E-01
 cg2d: Sum(rhs),rhsMax =   2.40987501023077E-04  1.37541266993437E-01
 cg2d: Sum(rhs),rhsMax =   2.41747231807342E-04  1.37542458243186E-01
 cg2d: Sum(rhs),rhsMax =   2.42503521388501E-04  1.37543653433363E-01
 cg2d: Sum(rhs),rhsMax =   2.43256363354100E-04  1.37544852554562E-01
 cg2d: Sum(rhs),rhsMax =   2.44005750917298E-04  1.37546055597367E-01
 cg2d: Sum(rhs),rhsMax =   2.44751677277902E-04  1.37547262552352E-01
 cg2d: Sum(rhs),rhsMax =   2.45494135844491E-04  1.37548473410084E-01
 cg2d: Sum(rhs),rhsMax =   2.46233119942994E-04  1.37549688161120E-01
 cg2d: Sum(rhs),rhsMax =   2.46968622934410E-04  1.37550906796010E-01
 cg2d: Sum(rhs),rhsMax =   2.47700638177029E-04  1.37552129305294E-01
 cg2d: Sum(rhs),rhsMax =   2.48429159022043E-04  1.37553355679505E-01
 cg2d: Sum(rhs),rhsMax =   2.49154178798342E-04  1.37554585909165E-01
 cg2d: Sum(rhs),rhsMax =   2.49875691148658E-04  1.37555819984791E-01
(PID.TID 0000.0001)      cg2d_init_res =   5.92591275696490E-04
(PID.TID 0000.0001)      cg2d_iters(min,last) =      -1      69
(PID.TID 0000.0001)      cg2d_last_res =   8.80278730902078E-08
(PID.TID 0000.0001) // =======================================================
(PID.TID 0000.0001) // Begin MONITOR dynamic field statistics
(PID.TID 0000.0001) // =======================================================
(PID.TID 0000.0001) %MON time_tsnumber                =                 16632
(PID.TID 0000.0001) %MON time_secondsf                =   1.9958400000000E+07
(PID.TID 0000.0001) %MON dynstat_eta_max              =   4.4536669216470E-02
(PID.TID 0000.0001) %MON dynstat_eta_min              =  -2.2294884306726E-02
(PID.TID 0000.0001) %MON dynstat_eta_mean             =  -1.7235465302754E-07
(PID.TID 0000.0001) %MON dynstat_eta_sd               =   1.6978168825568E-02
(PID.TID 0000.0001) %MON dynstat_eta_del2             =   1.7774441203838E-05
(PID.TID 0000.0001) %MON dynstat_uvel_max             =   3.0899469966767E-02
(PID.TID 0000.0001) %MON dynstat_uvel_min             =  -1.5707550557028E-02
(PID.TID 0000.0001) %MON dynstat_uvel_mean            =  -1.3677799367550E-07
(PID.TID 0000.0001) %MON dynstat_uvel_sd              =   6.8029251915216E-03
(PID.TID 0000.0001) %MON dynstat_uvel_del2            =   8.0187998187206E-06
(PID.TID 0000.0001) %MON dynstat_vvel_max             =   8.2369106758679E-02
(PID.TID 0000.0001) %MON dynstat_vvel_min             =  -3.1552445871302E-02
(PID.TID 0000.0001) %MON dynstat_vvel_mean            =   5.7476764717796E-09
(PID.TID 0000.0001) %MON dynstat_vvel_sd              =   1.4551334778616E-02
(PID.TID 0000.0001) %MON dynstat_vvel_del2            =   7.3719906028064E-05
(PID.TID 0000.0001) %MON dynstat_wvel_max             =   8.4361915175396E-09
(PID.TID 0000.0001) %MON dynstat_wvel_min             =  -8.3253882723511E-09
(PID.TID 0000.0001) %MON dynstat_wvel_mean            =  -9.6482558041720E-22
(PID.TID 0000.0001) %MON dynstat_wvel_sd              =   3.7379051159530E-09
(PID.TID 0000.0001) %MON dynstat_wvel_del2            =   1.2498312284934E-12
(PID.TID 0000.0001) %MON dynstat_theta_max            =   2.0000000000000E+01
(PID.TID 0000.0001) %MON dynstat_theta_min            =   2.0000000000000E+01
(PID.TID 0000.0001) %MON dynstat_theta_mean           =   2.0000000000000E+01
(PID.TID 0000.0001) %MON dynstat_theta_sd             =   0.0000000000000E+00
(PID.TID 0000.0001) %MON dynstat_theta_del2           =   0.0000000000000E+00
(PID.TID 0000.0001) %MON dynstat_salt_max             =   3.0000000000000E+01
(PID.TID 0000.0001) %MON dynstat_salt_min             =   3.0000000000000E+01
(PID.TID 0000.0001) %MON dynstat_salt_mean            =   3.0000000000000E+01
(PID.TID 0000.0001) %MON dynstat_salt_sd              =   0.0000000000000E+00
(PID.TID 0000.0001) %MON dynstat_salt_del2            =   0.0000000000000E+00
(PID.TID 0000.0001) %MON trAdv_CFL_u_max              =   1.8539568348005E-03
(PID.TID 0000.0001) %MON trAdv_CFL_v_max              =   4.9421108351907E-03
(PID.TID 0000.0001) %MON trAdv_CFL_w_max              =   2.0254644681467E-09
(PID.TID 0000.0001) %MON advcfl_uvel_max              =   1.8539681980060E-03
(PID.TID 0000.0001) %MON advcfl_vvel_max              =   4.9421464055208E-03
(PID.TID 0000.0001) %MON advcfl_wvel_max              =   4.0493719284190E-09
(PID.TID 0000.0001) %MON advcfl_W_hf_max              =   0.0000000000000E+00
(PID.TID 0000.0001) %MON pe_b_mean                    =   2.8278131058192E-07
(PID.TID 0000.0001) %MON ke_max                       =   3.3889031250779E-03
(PID.TID 0000.0001) %MON ke_mean                      =   1.2686039138460E-04
(PID.TID 0000.0001) %MON ke_vol                       =   7.2000000000000E+15
(PID.TID 0000.0001) %MON vort_r_min                   =  -1.4917448326490E-06
(PID.TID 0000.0001) %MON vort_r_max                   =   2.2665749004318E-06
(PID.TID 0000.0001) %MON vort_a_mean                  =   1.0600000000000E-04
(PID.TID 0000.0001) %MON vort_a_sd                    =   3.5364340883442E-06
(PID.TID 0000.0001) %MON vort_p_mean                  =   1.1130000000000E-04
(PID.TID 0000.0001) %MON vort_p_sd                    =   4.1151221258027E-05
(PID.TID 0000.0001) %MON surfExpan_theta_mean         =  -1.9297393312930E-20
(PID.TID 0000.0001) %MON surfExpan_salt_mean          =  -2.8945853121816E-20
(PID.TID 0000.0001) // =======================================================
(PID.TID 0000.0001) // End MONITOR dynamic field statistics
(PID.TID 0000.0001) // =======================================================
 cg2d: Sum(rhs),rhsMax =   2.50593689124197E-04  1.37557057896888E-01
 cg2d: Sum(rhs),rhsMax =   2.51308166263078E-04  1.37558299635955E-01
 cg2d: Sum(rhs),rhsMax =   2.52019116160376E-04  1.37559545192481E-01
 cg2d: Sum(rhs),rhsMax =   2.52726532069771E-04  1.37560794556949E-01
 cg2d: Sum(rhs),rhsMax =   2.53430407442878E-04  1.37562047719832E-01
 cg2d: Sum(rhs),rhsMax =   2.54130735752153E-04  1.37563304671593E-01
 cg2d: Sum(rhs),rhsMax =   2.54827510562354E-04  1.37564565402690E-01
 cg2d: Sum(rhs),rhsMax =   2.55520725192819E-04  1.37565829903571E-01
 cg2d: Sum(rhs),rhsMax =   2.56210373190341E-04  1.37567098164677E-01
 cg2d: Sum(rhs),rhsMax =   2.56896448060143E-04  1.37568370176438E-01
 cg2d: Sum(rhs),rhsMax =   2.57578943307716E-04  1.37569645929281E-01
 cg2d: Sum(rhs),rhsMax =   2.58257852450558E-04  1.37570925413618E-01
 cg2d: Sum(rhs),rhsMax =   2.58933169043073E-04  1.37572208619859E-01
 cg2d: Sum(rhs),rhsMax =   2.59604886620684E-04  1.37573495538404E-01
 cg2d: Sum(rhs),rhsMax =   2.60372314636454E-04  1.37574785978351E-01
 cg2d: Sum(rhs),rhsMax =   2.61135486020859E-04  1.37576080323070E-01
 cg2d: Sum(rhs),rhsMax =   2.61894357875137E-04  1.37577378329249E-01
 cg2d: Sum(rhs),rhsMax =   2.62648882023079E-04  1.37578679998633E-01
 cg2d: Sum(rhs),rhsMax =   2.63399042992368E-04  1.37579985332188E-01
 cg2d: Sum(rhs),rhsMax =   2.64144845053041E-04  1.37581294323968E-01
 cg2d: Sum(rhs),rhsMax =   2.64886292382481E-04  1.37582606964610E-01
 cg2d: Sum(rhs),rhsMax =   2.65623383139474E-04  1.37583923242467E-01
 cg2d: Sum(rhs),rhsMax =   2.66356111360231E-04  1.37585243145944E-01
 cg2d: Sum(rhs),rhsMax =   2.67084470190853E-04  1.37586566664429E-01
 cg2d: Sum(rhs),rhsMax =   2.67808453106359E-04  1.37587893788191E-01
 cg2d: Sum(rhs),rhsMax =   2.68528054119615E-04  1.37589224507920E-01
 cg2d: Sum(rhs),rhsMax =   2.69243267450404E-04  1.37590558814309E-01
 cg2d: Sum(rhs),rhsMax =   2.69954087680010E-04  1.37591896697875E-01
 cg2d: Sum(rhs),rhsMax =   2.70660509382066E-04  1.37593238148941E-01
 cg2d: Sum(rhs),rhsMax =   2.71362527193315E-04  1.37594583157712E-01
 cg2d: Sum(rhs),rhsMax =   2.72060135754740E-04  1.37595931714369E-01
 cg2d: Sum(rhs),rhsMax =   2.72753329618978E-04  1.37597283809116E-01
 cg2d: Sum(rhs),rhsMax =   2.73442103383451E-04  1.37598639432193E-01
 cg2d: Sum(rhs),rhsMax =   2.74126451541963E-04  1.37599998573860E-01
 cg2d: Sum(rhs),rhsMax =   2.74806368713087E-04  1.37601361224371E-01
 cg2d: Sum(rhs),rhsMax =   2.75481849610444E-04  1.37602727373967E-01
 cg2d: Sum(rhs),rhsMax =   2.76152888745611E-04  1.37604097012872E-01
 cg2d: Sum(rhs),rhsMax =   2.76819480967938E-04  1.37605470131296E-01
 cg2d: Sum(rhs),rhsMax =   2.77481620987029E-04  1.37606846719439E-01
 cg2d: Sum(rhs),rhsMax =   2.78139303471888E-04  1.37608226767503E-01
 cg2d: Sum(rhs),rhsMax =   2.78792523097027E-04  1.37609610265680E-01
 cg2d: Sum(rhs),rhsMax =   2.79441274691730E-04  1.37610997204160E-01
 cg2d: Sum(rhs),rhsMax =   2.80085553024824E-04  1.37612387573123E-01
 cg2d: Sum(rhs),rhsMax =   2.80725352991400E-04  1.37613781362741E-01
 cg2d: Sum(rhs),rhsMax =   2.81360669334537E-04  1.37615178563180E-01
 cg2d: Sum(rhs),rhsMax =   2.81991497010446E-04  1.37616579164594E-01
 cg2d: Sum(rhs),rhsMax =   2.82617830771655E-04  1.37617983157134E-01
 cg2d: Sum(rhs),rhsMax =   2.83239665504865E-04  1.37619390530942E-01
 cg2d: Sum(rhs),rhsMax =   2.83856996330717E-04  1.37620801276152E-01
 cg2d: Sum(rhs),rhsMax =   2.84469817933776E-04  1.37622215382897E-01
 cg2d: Sum(rhs),rhsMax =   2.85078125449902E-04  1.37623632841297E-01
 cg2d: Sum(rhs),rhsMax =   2.85681913802689E-04  1.37625053641469E-01
 cg2d: Sum(rhs),rhsMax =   2.86281177925512E-04  1.37626477773521E-01
 cg2d: Sum(rhs),rhsMax =   2.86875912920093E-04  1.37627905227554E-01
 cg2d: Sum(rhs),rhsMax =   2.87466113853719E-04  1.37629335993665E-01
 cg2d: Sum(rhs),rhsMax =   2.88051775681772E-04  1.37630770061939E-01
 cg2d: Sum(rhs),rhsMax =   2.88632893590160E-04  1.37632207422459E-01
 cg2d: Sum(rhs),rhsMax =   2.89209462612509E-04  1.37633648065298E-01
 cg2d: Sum(rhs),rhsMax =   2.89781477909513E-04  1.37635091980526E-01
 cg2d: Sum(rhs),rhsMax =   2.90348934568958E-04  1.37636539158200E-01
 cg2d: Sum(rhs),rhsMax =   2.90911827832126E-04  1.37637989588378E-01
 cg2d: Sum(rhs),rhsMax =   2.91470152894811E-04  1.37639443261107E-01
 cg2d: Sum(rhs),rhsMax =   2.92023904915646E-04  1.37640900166427E-01
 cg2d: Sum(rhs),rhsMax =   2.92573079002940E-04  1.37642360294373E-01
 cg2d: Sum(rhs),rhsMax =   2.93117670489350E-04  1.37643823634974E-01
 cg2d: Sum(rhs),rhsMax =   2.93657674719368E-04  1.37645290178251E-01
 cg2d: Sum(rhs),rhsMax =   2.94193086801086E-04  1.37646759914218E-01
 cg2d: Sum(rhs),rhsMax =   2.94723902055321E-04  1.37648232832885E-01
 cg2d: Sum(rhs),rhsMax =   2.95250115947419E-04  1.37649708924253E-01
 cg2d: Sum(rhs),rhsMax =   2.95771723635129E-04  1.37651188178319E-01
 cg2d: Sum(rhs),rhsMax =   2.96288720518805E-04  1.37652670585072E-01
 cg2d: Sum(rhs),rhsMax =   2.96801101945749E-04  1.37654156134496E-01
(PID.TID 0000.0001)      cg2d_init_res =   5.89480732601149E-04
(PID.TID 0000.0001)      cg2d_iters(min,last) =      -1      67
(PID.TID 0000.0001)      cg2d_last_res =   8.28915036348835E-08
(PID.TID 0000.0001) // =======================================================
(PID.TID 0000.0001) // Begin MONITOR dynamic field statistics
(PID.TID 0000.0001) // =======================================================
(PID.TID 0000.0001) %MON time_tsnumber                =                 16704
(PID.TID 0000.0001) %MON time_secondsf                =   2.0044800000000E+07
(PID.TID 0000.0001) %MON dynstat_eta_max              =   4.4589916165679E-02
(PID.TID 0000.0001) %MON dynstat_eta_min              =  -2.2343755458660E-02
(PID.TID 0000.0001) %MON dynstat_eta_mean             =  -2.0463121643540E-07
(PID.TID 0000.0001) %MON dynstat_eta_sd               =   1.7146458709356E-02
(PID.TID 0000.0001) %MON dynstat_eta_del2             =   1.7765651062520E-05
(PID.TID 0000.0001) %MON dynstat_uvel_max             =   3.0915178183623E-02
(PID.TID 0000.0001) %MON dynstat_uvel_min             =  -1.5733525958840E-02
(PID.TID 0000.0001) %MON dynstat_uvel_mean            =  -1.4040799966298E-07
(PID.TID 0000.0001) %MON dynstat_uvel_sd              =   6.8371665932651E-03
(PID.TID 0000.0001) %MON dynstat_uvel_del2            =   8.0364550816757E-06
(PID.TID 0000.0001) %MON dynstat_vvel_max             =   8.2419195048298E-02
(PID.TID 0000.0001) %MON dynstat_vvel_min             =  -3.1465784590305E-02
(PID.TID 0000.0001) %MON dynstat_vvel_mean            =   6.7219969130943E-09
(PID.TID 0000.0001) %MON dynstat_vvel_sd              =   1.4565495734256E-02
(PID.TID 0000.0001) %MON dynstat_vvel_del2            =   7.3743971594841E-05
(PID.TID 0000.0001) %MON dynstat_wvel_max             =   8.1921381674329E-09
(PID.TID 0000.0001) %MON dynstat_wvel_min             =  -8.6533355398569E-09
(PID.TID 0000.0001) %MON dynstat_wvel_mean            =  -3.3107705298284E-21
(PID.TID 0000.0001) %MON dynstat_wvel_sd              =   3.7280127495263E-09
(PID.TID 0000.0001) %MON dynstat_wvel_del2            =   1.2436350084064E-12
(PID.TID 0000.0001) %MON dynstat_theta_max            =   2.0000000000000E+01
(PID.TID 0000.0001) %MON dynstat_theta_min            =   2.0000000000000E+01
(PID.TID 0000.0001) %MON dynstat_theta_mean           =   2.0000000000000E+01
(PID.TID 0000.0001) %MON dynstat_theta_sd             =   0.0000000000000E+00
(PID.TID 0000.0001) %MON dynstat_theta_del2           =   0.0000000000000E+00
(PID.TID 0000.0001) %MON dynstat_salt_max             =   3.0000000000000E+01
(PID.TID 0000.0001) %MON dynstat_salt_min             =   3.0000000000000E+01
(PID.TID 0000.0001) %MON dynstat_salt_mean            =   3.0000000000000E+01
(PID.TID 0000.0001) %MON dynstat_salt_sd              =   0.0000000000000E+00
(PID.TID 0000.0001) %MON dynstat_salt_del2            =   0.0000000000000E+00
(PID.TID 0000.0001) %MON trAdv_CFL_u_max              =   1.8548960011118E-03
(PID.TID 0000.0001) %MON trAdv_CFL_v_max              =   4.9451042418177E-03
(PID.TID 0000.0001) %MON trAdv_CFL_w_max              =   1.9668980230519E-09
(PID.TID 0000.0001) %MON advcfl_uvel_max              =   1.8549106910174E-03
(PID.TID 0000.0001) %MON advcfl_vvel_max              =   4.9451517028979E-03
(PID.TID 0000.0001) %MON advcfl_wvel_max              =   4.1536010591313E-09
(PID.TID 0000.0001) %MON advcfl_W_hf_max              =   0.0000000000000E+00
(PID.TID 0000.0001) %MON pe_b_mean                    =   2.8841502643356E-07
(PID.TID 0000.0001) %MON ke_max                       =   3.3930200325673E-03
(PID.TID 0000.0001) %MON ke_mean                      =   1.2729275223899E-04
(PID.TID 0000.0001) %MON ke_vol                       =   7.2000000000000E+15
(PID.TID 0000.0001) %MON vort_r_min                   =  -1.4894821635021E-06
(PID.TID 0000.0001) %MON vort_r_max                   =   2.2694784232055E-06
(PID.TID 0000.0001) %MON vort_a_mean                  =   1.0600000000000E-04
(PID.TID 0000.0001) %MON vort_a_sd                    =   3.5364523386060E-06
(PID.TID 0000.0001) %MON vort_p_mean                  =   1.1130000000000E-04
(PID.TID 0000.0001) %MON vort_p_sd                    =   4.1151210772046E-05
(PID.TID 0000.0001) %MON surfExpan_theta_mean         =  -6.6216424627403E-20
(PID.TID 0000.0001) %MON surfExpan_salt_mean          =  -9.9324163400145E-20
(PID.TID 0000.0001) // =======================================================
(PID.TID 0000.0001) // End MONITOR dynamic field statistics
(PID.TID 0000.0001) // =======================================================
 cg2d: Sum(rhs),rhsMax =   2.97308863321595E-04  1.37655644816566E-01
 cg2d: Sum(rhs),rhsMax =   2.97811999983950E-04  1.37657136621254E-01
 cg2d: Sum(rhs),rhsMax =   2.98310507356414E-04  1.37658631538525E-01
 cg2d: Sum(rhs),rhsMax =   2.98804380887643E-04  1.37660129558336E-01
 cg2d: Sum(rhs),rhsMax =   2.99293616062918E-04  1.37661630670638E-01
 cg2d: Sum(rhs),rhsMax =   2.99778208195372E-04  1.37663134865379E-01
 cg2d: Sum(rhs),rhsMax =   3.00258152814402E-04  1.37664642132499E-01
 cg2d: Sum(rhs),rhsMax =   3.00733445318765E-04  1.37666152461928E-01
 cg2d: Sum(rhs),rhsMax =   3.01204081352441E-04  1.37667665843599E-01
 cg2d: Sum(rhs),rhsMax =   3.01670056223568E-04  1.37669182267429E-01
 cg2d: Sum(rhs),rhsMax =   3.02131365583002E-04  1.37670701723337E-01
 cg2d: Sum(rhs),rhsMax =   3.02610608644114E-04  1.37672224497185E-01
 cg2d: Sum(rhs),rhsMax =   3.03084937340753E-04  1.37673749997885E-01
 cg2d: Sum(rhs),rhsMax =   3.03554292654642E-04  1.37675278485474E-01
 cg2d: Sum(rhs),rhsMax =   3.04018657490582E-04  1.37676809963717E-01
 cg2d: Sum(rhs),rhsMax =   3.04478025929309E-04  1.37678344423362E-01
 cg2d: Sum(rhs),rhsMax =   3.04932400069934E-04  1.37679881855529E-01
 cg2d: Sum(rhs),rhsMax =   3.05381781179750E-04  1.37681422250487E-01
 cg2d: Sum(rhs),rhsMax =   3.05826166861503E-04  1.37682965597487E-01
 cg2d: Sum(rhs),rhsMax =   3.06265552835246E-04  1.37684511885627E-01
 cg2d: Sum(rhs),rhsMax =   3.06699934555189E-04  1.37686061104357E-01
 cg2d: Sum(rhs),rhsMax =   3.07129307971351E-04  1.37687613243489E-01
 cg2d: Sum(rhs),rhsMax =   3.07553669360546E-04  1.37689168293014E-01
 cg2d: Sum(rhs),rhsMax =   3.07973015036042E-04  1.37690726242934E-01
 cg2d: Sum(rhs),rhsMax =   3.08387341381220E-04  1.37692287083183E-01
 cg2d: Sum(rhs),rhsMax =   3.08796644697518E-04  1.37693850803606E-01
 cg2d: Sum(rhs),rhsMax =   3.09200921349569E-04  1.37695417394002E-01
 cg2d: Sum(rhs),rhsMax =   3.09600167710413E-04  1.37696986844150E-01
 cg2d: Sum(rhs),rhsMax =   3.09994379926213E-04  1.37698559143843E-01
 cg2d: Sum(rhs),rhsMax =   3.10383554535675E-04  1.37700134282882E-01
 cg2d: Sum(rhs),rhsMax =   3.10767687718849E-04  1.37701712251076E-01
 cg2d: Sum(rhs),rhsMax =   3.11146775867619E-04  1.37703293038228E-01
 cg2d: Sum(rhs),rhsMax =   3.11520815209137E-04  1.37704876634134E-01
 cg2d: Sum(rhs),rhsMax =   3.11889802157724E-04  1.37706463028583E-01
 cg2d: Sum(rhs),rhsMax =   3.12253732866166E-04  1.37708052211353E-01
 cg2d: Sum(rhs),rhsMax =   3.12612603755133E-04  1.37709644172219E-01
 cg2d: Sum(rhs),rhsMax =   3.12966411079826E-04  1.37711238900948E-01
 cg2d: Sum(rhs),rhsMax =   3.13315151094252E-04  1.37712836387309E-01
 cg2d: Sum(rhs),rhsMax =   3.13658820063458E-04  1.37714436621061E-01
 cg2d: Sum(rhs),rhsMax =   3.13997414235196E-04  1.37716039591961E-01
 cg2d: Sum(rhs),rhsMax =   3.14330929857696E-04  1.37717645289760E-01
 cg2d: Sum(rhs),rhsMax =   3.14659363180846E-04  1.37719253704203E-01
 cg2d: Sum(rhs),rhsMax =   3.14982710254030E-04  1.37720864825029E-01
 cg2d: Sum(rhs),rhsMax =   3.15300967383293E-04  1.37722478641974E-01
 cg2d: Sum(rhs),rhsMax =   3.15614130618338E-04  1.37724095144767E-01
 cg2d: Sum(rhs),rhsMax =   3.15922196210312E-04  1.37725714323133E-01
 cg2d: Sum(rhs),rhsMax =   3.16225160186943E-04  1.37727336166794E-01
 cg2d: Sum(rhs),rhsMax =   3.16523018662014E-04  1.37728960665467E-01
 cg2d: Sum(rhs),rhsMax =   3.16815767686295E-04  1.37730587808860E-01
 cg2d: Sum(rhs),rhsMax =   3.17103403222520E-04  1.37732217586680E-01
 cg2d: Sum(rhs),rhsMax =   3.17385921334856E-04  1.37733849988630E-01
 cg2d: Sum(rhs),rhsMax =   3.17663317921942E-04  1.37735485004404E-01
 cg2d: Sum(rhs),rhsMax =   3.17935588912382E-04  1.37737122623697E-01
 cg2d: Sum(rhs),rhsMax =   3.18202730133053E-04  1.37738762836195E-01
 cg2d: Sum(rhs),rhsMax =   3.18464737626716E-04  1.37740405631580E-01
 cg2d: Sum(rhs),rhsMax =   3.18721606932709E-04  1.37742050999531E-01
 cg2d: Sum(rhs),rhsMax =   3.18973333918709E-04  1.37743698929722E-01
 cg2d: Sum(rhs),rhsMax =   3.19219914337933E-04  1.37745349411822E-01
 cg2d: Sum(rhs),rhsMax =   3.19461343807691E-04  1.37747002435493E-01
 cg2d: Sum(rhs),rhsMax =   3.19709681624981E-04  1.37748657907499E-01
 cg2d: Sum(rhs),rhsMax =   3.19952566835747E-04  1.37750316000037E-01
 cg2d: Sum(rhs),rhsMax =   3.20189968314882E-04  1.37751976584154E-01
 cg2d: Sum(rhs),rhsMax =   3.20421853154285E-04  1.37753639668463E-01
 cg2d: Sum(rhs),rhsMax =   3.20648218400864E-04  1.37755305241365E-01
 cg2d: Sum(rhs),rhsMax =   3.20869069708610E-04  1.37756973294541E-01
 cg2d: Sum(rhs),rhsMax =   3.21084410418137E-04  1.37758643818136E-01
 cg2d: Sum(rhs),rhsMax =   3.21294238830370E-04  1.37760316801354E-01
 cg2d: Sum(rhs),rhsMax =   3.21498551463227E-04  1.37761992233100E-01
 cg2d: Sum(rhs),rhsMax =   3.21706910551486E-04  1.37763669886008E-01
 cg2d: Sum(rhs),rhsMax =   3.21909473939220E-04  1.37765350166933E-01
 cg2d: Sum(rhs),rhsMax =   3.22106176840180E-04  1.37767032878843E-01
 cg2d: Sum(rhs),rhsMax =   3.22296997508593E-04  1.37768717995844E-01
(PID.TID 0000.0001)      cg2d_init_res =   5.86425516705880E-04
(PID.TID 0000.0001)      cg2d_iters(min,last) =      -1      64
(PID.TID 0000.0001)      cg2d_last_res =   9.68080847704298E-08
(PID.TID 0000.0001) // =======================================================
(PID.TID 0000.0001) // Begin MONITOR dynamic field statistics
(PID.TID 0000.0001) // =======================================================
(PID.TID 0000.0001) %MON time_tsnumber                =                 16776
(PID.TID 0000.0001) %MON time_secondsf                =   2.0131200000000E+07
(PID.TID 0000.0001) %MON dynstat_eta_max              =   4.4680780963920E-02
(PID.TID 0000.0001) %MON dynstat_eta_min              =  -2.2368719497412E-02
(PID.TID 0000.0001) %MON dynstat_eta_mean             =  -2.2214233664932E-07
(PID.TID 0000.0001) %MON dynstat_eta_sd               =   1.7308006610632E-02
(PID.TID 0000.0001) %MON dynstat_eta_del2             =   1.7758341561898E-05
(PID.TID 0000.0001) %MON dynstat_uvel_max             =   3.0934573355910E-02
(PID.TID 0000.0001) %MON dynstat_uvel_min             =  -1.5762897781246E-02
(PID.TID 0000.0001) %MON dynstat_uvel_mean            =  -1.4199292542657E-07
(PID.TID 0000.0001) %MON dynstat_uvel_sd              =   6.8664207349649E-03
(PID.TID 0000.0001) %MON dynstat_uvel_del2            =   8.0511441732446E-06
(PID.TID 0000.0001) %MON dynstat_vvel_max             =   8.2482489954281E-02
(PID.TID 0000.0001) %MON dynstat_vvel_min             =  -3.1380665193403E-02
(PID.TID 0000.0001) %MON dynstat_vvel_mean            =   7.6887729588167E-09
(PID.TID 0000.0001) %MON dynstat_vvel_sd              =   1.4581917462407E-02
(PID.TID 0000.0001) %MON dynstat_vvel_del2            =   7.3777894145327E-05
(PID.TID 0000.0001) %MON dynstat_wvel_max             =   7.9195674311632E-09
(PID.TID 0000.0001) %MON dynstat_wvel_min             =  -8.9245888622827E-09
(PID.TID 0000.0001) %MON dynstat_wvel_mean            =  -2.3075927578652E-21
(PID.TID 0000.0001) %MON dynstat_wvel_sd              =   3.7158055055616E-09
(PID.TID 0000.0001) %MON dynstat_wvel_del2            =   1.2365028026753E-12
(PID.TID 0000.0001) %MON dynstat_theta_max            =   2.0000000000000E+01
(PID.TID 0000.0001) %MON dynstat_theta_min            =   2.0000000000000E+01
(PID.TID 0000.0001) %MON dynstat_theta_mean           =   2.0000000000000E+01
(PID.TID 0000.0001) %MON dynstat_theta_sd             =   0.0000000000000E+00
(PID.TID 0000.0001) %MON dynstat_theta_del2           =   0.0000000000000E+00
(PID.TID 0000.0001) %MON dynstat_salt_max             =   3.0000000000000E+01
(PID.TID 0000.0001) %MON dynstat_salt_min             =   3.0000000000000E+01
(PID.TID 0000.0001) %MON dynstat_salt_mean            =   3.0000000000000E+01
(PID.TID 0000.0001) %MON dynstat_salt_sd              =   0.0000000000000E+00
(PID.TID 0000.0001) %MON dynstat_salt_del2            =   0.0000000000000E+00
(PID.TID 0000.0001) %MON trAdv_CFL_u_max              =   1.8560568933475E-03
(PID.TID 0000.0001) %MON trAdv_CFL_v_max              =   4.9488918117010E-03
(PID.TID 0000.0001) %MON trAdv_CFL_w_max              =   1.9014889964601E-09
(PID.TID 0000.0001) %MON advcfl_uvel_max              =   1.8560744013546E-03
(PID.TID 0000.0001) %MON advcfl_vvel_max              =   4.9489493972568E-03
(PID.TID 0000.0001) %MON advcfl_wvel_max              =   4.2838026538957E-09
(PID.TID 0000.0001) %MON advcfl_W_hf_max              =   0.0000000000000E+00
(PID.TID 0000.0001) %MON pe_b_mean                    =   2.9387531811826E-07
(PID.TID 0000.0001) %MON ke_max                       =   3.3988065742158E-03
(PID.TID 0000.0001) %MON ke_mean                      =   1.2772519155002E-04
(PID.TID 0000.0001) %MON ke_vol                       =   7.2000000000000E+15
(PID.TID 0000.0001) %MON vort_r_min                   =  -1.4873150970997E-06
(PID.TID 0000.0001) %MON vort_r_max                   =   2.2726181674271E-06
(PID.TID 0000.0001) %MON vort_a_mean                  =   1.0600000000000E-04
(PID.TID 0000.0001) %MON vort_a_sd                    =   3.5364741177516E-06
(PID.TID 0000.0001) %MON vort_p_mean                  =   1.1130000000000E-04
(PID.TID 0000.0001) %MON vort_p_sd                    =   4.1151196442890E-05
(PID.TID 0000.0001) %MON surfExpan_theta_mean         =  -4.6152277061790E-20
(PID.TID 0000.0001) %MON surfExpan_salt_mean          =  -6.9228494541878E-20
(PID.TID 0000.0001) // =======================================================
(PID.TID 0000.0001) // End MONITOR dynamic field statistics
(PID.TID 0000.0001) // =======================================================
 cg2d: Sum(rhs),rhsMax =   3.22481937714556E-04  1.37770405508076E-01
 cg2d: Sum(rhs),rhsMax =   3.22661007186207E-04  1.37772095407038E-01
 cg2d: Sum(rhs),rhsMax =   3.22834212816295E-04  1.37773787683086E-01
 cg2d: Sum(rhs),rhsMax =   3.23001556862329E-04  1.37775482325319E-01
 cg2d: Sum(rhs),rhsMax =   3.23163039246642E-04  1.37777179322573E-01
 cg2d: Sum(rhs),rhsMax =   3.23324782416908E-04  1.37778878655177E-01
 cg2d: Sum(rhs),rhsMax =   3.23480428224251E-04  1.37780580294739E-01
 cg2d: Sum(rhs),rhsMax =   3.23629931395850E-04  1.37782284290017E-01
 cg2d: Sum(rhs),rhsMax =   3.23773273310249E-04  1.37783990599205E-01
 cg2d: Sum(rhs),rhsMax =   3.23910461391363E-04  1.37785699209595E-01
 cg2d: Sum(rhs),rhsMax =   3.24041509130359E-04  1.37787410112827E-01
 cg2d: Sum(rhs),rhsMax =   3.24166427179529E-04  1.37789123299251E-01
 cg2d: Sum(rhs),rhsMax =   3.24285222462571E-04  1.37790838758000E-01
 cg2d: Sum(rhs),rhsMax =   3.24397899809043E-04  1.37792556477950E-01
 cg2d: Sum(rhs),rhsMax =   3.24504464175221E-04  1.37794276448231E-01
 cg2d: Sum(rhs),rhsMax =   3.24604921184747E-04  1.37795998658302E-01
 cg2d: Sum(rhs),rhsMax =   3.24699277471637E-04  1.37797723097814E-01
 cg2d: Sum(rhs),rhsMax =   3.24787539225839E-04  1.37799449756457E-01
 cg2d: Sum(rhs),rhsMax =   3.24869713294427E-04  1.37801178623868E-01
 cg2d: Sum(rhs),rhsMax =   3.24945805930408E-04  1.37802909689609E-01
 cg2d: Sum(rhs),rhsMax =   3.25015823836023E-04  1.37804642943197E-01
 cg2d: Sum(rhs),rhsMax =   3.25079773334378E-04  1.37806378374134E-01
 cg2d: Sum(rhs),rhsMax =   3.25137661285039E-04  1.37808115971926E-01
 cg2d: Sum(rhs),rhsMax =   3.25189494516720E-04  1.37809855726090E-01
 cg2d: Sum(rhs),rhsMax =   3.25235279598723E-04  1.37811597626146E-01
 cg2d: Sum(rhs),rhsMax =   3.25275023471215E-04  1.37813341661614E-01
 cg2d: Sum(rhs),rhsMax =   3.25308732966500E-04  1.37815087822009E-01
 cg2d: Sum(rhs),rhsMax =   3.25336828390400E-04  1.37816836150283E-01
 cg2d: Sum(rhs),rhsMax =   3.25358742601052E-04  1.37818586504840E-01
 cg2d: Sum(rhs),rhsMax =   3.25374434427987E-04  1.37820338973767E-01
 cg2d: Sum(rhs),rhsMax =   3.25383902632714E-04  1.37822093529716E-01
 cg2d: Sum(rhs),rhsMax =   3.25387159977774E-04  1.37823850156855E-01
 cg2d: Sum(rhs),rhsMax =   3.25384221419927E-04  1.37825608846176E-01
 cg2d: Sum(rhs),rhsMax =   3.25375099888441E-04  1.37827369587858E-01
 cg2d: Sum(rhs),rhsMax =   3.25359805603624E-04  1.37829132371113E-01
 cg2d: Sum(rhs),rhsMax =   3.25338347098980E-04  1.37830897184924E-01
 cg2d: Sum(rhs),rhsMax =   3.25310732986054E-04  1.37832664018441E-01
 cg2d: Sum(rhs),rhsMax =   3.25276972068149E-04  1.37834432861056E-01
 cg2d: Sum(rhs),rhsMax =   3.25237073066070E-04  1.37836203702316E-01
 cg2d: Sum(rhs),rhsMax =   3.25191044452948E-04  1.37837976531804E-01
 cg2d: Sum(rhs),rhsMax =   3.25138894708723E-04  1.37839751339068E-01
 cg2d: Sum(rhs),rhsMax =   3.25080631475657E-04  1.37841528113605E-01
 cg2d: Sum(rhs),rhsMax =   3.25016262269090E-04  1.37843306844869E-01
 cg2d: Sum(rhs),rhsMax =   3.24945794221850E-04  1.37845087522303E-01
 cg2d: Sum(rhs),rhsMax =   3.24869234096788E-04  1.37846870135352E-01
 cg2d: Sum(rhs),rhsMax =   3.24786588356473E-04  1.37848654673463E-01
 cg2d: Sum(rhs),rhsMax =   3.24697862986578E-04  1.37850441126091E-01
 cg2d: Sum(rhs),rhsMax =   3.24603063572605E-04  1.37852229482687E-01
 cg2d: Sum(rhs),rhsMax =   3.24502195293401E-04  1.37854019732697E-01
 cg2d: Sum(rhs),rhsMax =   3.24395262698845E-04  1.37855811865566E-01
 cg2d: Sum(rhs),rhsMax =   3.24282270037540E-04  1.37857605870732E-01
 cg2d: Sum(rhs),rhsMax =   3.24163221087654E-04  1.37859401737636E-01
 cg2d: Sum(rhs),rhsMax =   3.24038118932830E-04  1.37861199455714E-01
 cg2d: Sum(rhs),rhsMax =   3.23906966311145E-04  1.37862999014402E-01
 cg2d: Sum(rhs),rhsMax =   3.23769765468797E-04  1.37864800403133E-01
 cg2d: Sum(rhs),rhsMax =   3.23626517877177E-04  1.37866603611337E-01
 cg2d: Sum(rhs),rhsMax =   3.23477224840546E-04  1.37868408628441E-01
 cg2d: Sum(rhs),rhsMax =   3.23321886710778E-04  1.37870215443869E-01
 cg2d: Sum(rhs),rhsMax =   3.23160503587495E-04  1.37872024047042E-01
 cg2d: Sum(rhs),rhsMax =   3.22993074802390E-04  1.37873834427380E-01
 cg2d: Sum(rhs),rhsMax =   3.22819599255932E-04  1.37875646574298E-01
 cg2d: Sum(rhs),rhsMax =   3.22640075087756E-04  1.37877460477210E-01
 cg2d: Sum(rhs),rhsMax =   3.22454500251340E-04  1.37879276125531E-01
 cg2d: Sum(rhs),rhsMax =   3.22262871693461E-04  1.37881093508671E-01
 cg2d: Sum(rhs),rhsMax =   3.22065186097029E-04  1.37882912616036E-01
 cg2d: Sum(rhs),rhsMax =   3.21861439417115E-04  1.37884733437036E-01
 cg2d: Sum(rhs),rhsMax =   3.21651627100414E-04  1.37886555961073E-01
 cg2d: Sum(rhs),rhsMax =   3.21435744116470E-04  1.37888380177549E-01
 cg2d: Sum(rhs),rhsMax =   3.21213784700067E-04  1.37890206075862E-01
 cg2d: Sum(rhs),rhsMax =   3.20985742845612E-04  1.37892033645413E-01
 cg2d: Sum(rhs),rhsMax =   3.20751611837264E-04  1.37893862875595E-01
 cg2d: Sum(rhs),rhsMax =   3.20511384521021E-04  1.37895693755801E-01
(PID.TID 0000.0001)      cg2d_init_res =   5.83435736793385E-04
(PID.TID 0000.0001)      cg2d_iters(min,last) =      -1      62
(PID.TID 0000.0001)      cg2d_last_res =   8.75391604820764E-08
(PID.TID 0000.0001) // =======================================================
(PID.TID 0000.0001) // Begin MONITOR dynamic field statistics
(PID.TID 0000.0001) // =======================================================
(PID.TID 0000.0001) %MON time_tsnumber                =                 16848
(PID.TID 0000.0001) %MON time_secondsf                =   2.0217600000000E+07
(PID.TID 0000.0001) %MON dynstat_eta_max              =   4.4806884350804E-02
(PID.TID 0000.0001) %MON dynstat_eta_min              =  -2.2369431756008E-02
(PID.TID 0000.0001) %MON dynstat_eta_mean             =  -2.2081879293983E-07
(PID.TID 0000.0001) %MON dynstat_eta_sd               =   1.7460671915002E-02
(PID.TID 0000.0001) %MON dynstat_eta_del2             =   1.7752525863843E-05
(PID.TID 0000.0001) %MON dynstat_uvel_max             =   3.0957020615074E-02
(PID.TID 0000.0001) %MON dynstat_uvel_min             =  -1.5794825663616E-02
(PID.TID 0000.0001) %MON dynstat_uvel_mean            =  -1.4152643693115E-07
(PID.TID 0000.0001) %MON dynstat_uvel_sd              =   6.8903136567051E-03
(PID.TID 0000.0001) %MON dynstat_uvel_del2            =   8.0626039166365E-06
(PID.TID 0000.0001) %MON dynstat_vvel_max             =   8.2556804418150E-02
(PID.TID 0000.0001) %MON dynstat_vvel_min             =  -3.1298642277428E-02
(PID.TID 0000.0001) %MON dynstat_vvel_mean            =   8.6350440156936E-09
(PID.TID 0000.0001) %MON dynstat_vvel_sd              =   1.4600199763268E-02
(PID.TID 0000.0001) %MON dynstat_vvel_del2            =   7.3820717312535E-05
(PID.TID 0000.0001) %MON dynstat_wvel_max             =   7.6298759798374E-09
(PID.TID 0000.0001) %MON dynstat_wvel_min             =  -9.2036656691926E-09
(PID.TID 0000.0001) %MON dynstat_wvel_mean            =   9.0766974381040E-22
(PID.TID 0000.0001) %MON dynstat_wvel_sd              =   3.7013213119034E-09
(PID.TID 0000.0001) %MON dynstat_wvel_del2            =   1.2322667461183E-12
(PID.TID 0000.0001) %MON dynstat_theta_max            =   2.0000000000000E+01
(PID.TID 0000.0001) %MON dynstat_theta_min            =   2.0000000000000E+01
(PID.TID 0000.0001) %MON dynstat_theta_mean           =   2.0000000000000E+01
(PID.TID 0000.0001) %MON dynstat_theta_sd             =   0.0000000000000E+00
(PID.TID 0000.0001) %MON dynstat_theta_del2           =   0.0000000000000E+00
(PID.TID 0000.0001) %MON dynstat_salt_max             =   3.0000000000000E+01
(PID.TID 0000.0001) %MON dynstat_salt_min             =   3.0000000000000E+01
(PID.TID 0000.0001) %MON dynstat_salt_mean            =   3.0000000000000E+01
(PID.TID 0000.0001) %MON dynstat_salt_sd              =   0.0000000000000E+00
(PID.TID 0000.0001) %MON dynstat_salt_del2            =   0.0000000000000E+00
(PID.TID 0000.0001) %MON trAdv_CFL_u_max              =   1.8574014583528E-03
(PID.TID 0000.0001) %MON trAdv_CFL_v_max              =   4.9533424273485E-03
(PID.TID 0000.0001) %MON trAdv_CFL_w_max              =   1.8322952039656E-09
(PID.TID 0000.0001) %MON advcfl_uvel_max              =   1.8574212369044E-03
(PID.TID 0000.0001) %MON advcfl_vvel_max              =   4.9534082650890E-03
(PID.TID 0000.0001) %MON advcfl_wvel_max              =   4.4177595212124E-09
(PID.TID 0000.0001) %MON advcfl_W_hf_max              =   0.0000000000000E+00
(PID.TID 0000.0001) %MON pe_b_mean                    =   2.9908243756043E-07
(PID.TID 0000.0001) %MON ke_max                       =   3.4055304402389E-03
(PID.TID 0000.0001) %MON ke_mean                      =   1.2814910892232E-04
(PID.TID 0000.0001) %MON ke_vol                       =   7.2000000000000E+15
(PID.TID 0000.0001) %MON vort_r_min                   =  -1.4852525502703E-06
(PID.TID 0000.0001) %MON vort_r_max                   =   2.2759176102102E-06
(PID.TID 0000.0001) %MON vort_a_mean                  =   1.0600000000000E-04
(PID.TID 0000.0001) %MON vort_a_sd                    =   3.5364988596236E-06
(PID.TID 0000.0001) %MON vort_p_mean                  =   1.1130000000000E-04
(PID.TID 0000.0001) %MON vort_p_sd                    =   4.1151178213056E-05
(PID.TID 0000.0001) %MON surfExpan_theta_mean         =   1.8153498149154E-20
(PID.TID 0000.0001) %MON surfExpan_salt_mean          =   2.7230563174700E-20
(PID.TID 0000.0001) // =======================================================
(PID.TID 0000.0001) // End MONITOR dynamic field statistics
(PID.TID 0000.0001) // =======================================================
 cg2d: Sum(rhs),rhsMax =   3.20265053199425E-04  1.37897526275425E-01
 cg2d: Sum(rhs),rhsMax =   3.20012609767682E-04  1.37899360423855E-01
 cg2d: Sum(rhs),rhsMax =   3.19754045555714E-04  1.37901196190481E-01
 cg2d: Sum(rhs),rhsMax =   3.19489351691783E-04  1.37903033564687E-01
 cg2d: Sum(rhs),rhsMax =   3.19218518565785E-04  1.37904872535859E-01
 cg2d: Sum(rhs),rhsMax =   3.18941536476761E-04  1.37906713093379E-01
 cg2d: Sum(rhs),rhsMax =   3.18658395083086E-04  1.37908555226626E-01
 cg2d: Sum(rhs),rhsMax =   3.18369083876964E-04  1.37910398924983E-01
 cg2d: Sum(rhs),rhsMax =   3.18073591896536E-04  1.37912244177825E-01
 cg2d: Sum(rhs),rhsMax =   3.17771908068386E-04  1.37914090974529E-01
 cg2d: Sum(rhs),rhsMax =   3.17464020728102E-04  1.37915939304470E-01
 cg2d: Sum(rhs),rhsMax =   3.17149918162098E-04  1.37917789157018E-01
 cg2d: Sum(rhs),rhsMax =   3.16829588394021E-04  1.37919640521547E-01
 cg2d: Sum(rhs),rhsMax =   3.16503019216414E-04  1.37921493387427E-01
 cg2d: Sum(rhs),rhsMax =   3.16170198191890E-04  1.37923347744026E-01
 cg2d: Sum(rhs),rhsMax =   3.15831112863621E-04  1.37925203580711E-01
 cg2d: Sum(rhs),rhsMax =   3.15485750363544E-04  1.37927060886847E-01
 cg2d: Sum(rhs),rhsMax =   3.15134098018166E-04  1.37928919651801E-01
 cg2d: Sum(rhs),rhsMax =   3.14776142884876E-04  1.37930779864934E-01
 cg2d: Sum(rhs),rhsMax =   3.14411871956152E-04  1.37932641515608E-01
 cg2d: Sum(rhs),rhsMax =   3.14041272158924E-04  1.37934504593186E-01
 cg2d: Sum(rhs),rhsMax =   3.13664330647472E-04  1.37936369087025E-01
 cg2d: Sum(rhs),rhsMax =   3.13281034236628E-04  1.37938234986486E-01
 cg2d: Sum(rhs),rhsMax =   3.12891370058002E-04  1.37940102280924E-01
 cg2d: Sum(rhs),rhsMax =   3.12495324939821E-04  1.37941970959697E-01
 cg2d: Sum(rhs),rhsMax =   3.12108305458842E-04  1.37943840974532E-01
 cg2d: Sum(rhs),rhsMax =   3.11715303506691E-04  1.37945712415585E-01
 cg2d: Sum(rhs),rhsMax =   3.11316292586865E-04  1.37947585187842E-01
 cg2d: Sum(rhs),rhsMax =   3.10911249995690E-04  1.37949459298276E-01
 cg2d: Sum(rhs),rhsMax =   3.10500168097793E-04  1.37951334739863E-01
 cg2d: Sum(rhs),rhsMax =   3.10083047615420E-04  1.37953211501053E-01
 cg2d: Sum(rhs),rhsMax =   3.09659887771603E-04  1.37955089571038E-01
 cg2d: Sum(rhs),rhsMax =   3.09230684552107E-04  1.37956968939661E-01
 cg2d: Sum(rhs),rhsMax =   3.08795432209081E-04  1.37958849596744E-01
 cg2d: Sum(rhs),rhsMax =   3.08354125559638E-04  1.37960731531899E-01
 cg2d: Sum(rhs),rhsMax =   3.07906759658556E-04  1.37962614734510E-01
 cg2d: Sum(rhs),rhsMax =   3.07453330245833E-04  1.37964499193834E-01
 cg2d: Sum(rhs),rhsMax =   3.06993833210012E-04  1.37966384899098E-01
 cg2d: Sum(rhs),rhsMax =   3.06528264577643E-04  1.37968271839574E-01
 cg2d: Sum(rhs),rhsMax =   3.06056620620766E-04  1.37970160004585E-01
 cg2d: Sum(rhs),rhsMax =   3.05578897460591E-04  1.37972049383489E-01
 cg2d: Sum(rhs),rhsMax =   3.05095091757887E-04  1.37973939965653E-01
 cg2d: Sum(rhs),rhsMax =   3.04605200125086E-04  1.37975831740435E-01
 cg2d: Sum(rhs),rhsMax =   3.04132489950096E-04  1.37977724700538E-01
 cg2d: Sum(rhs),rhsMax =   3.03654237652395E-04  1.37979618865167E-01
 cg2d: Sum(rhs),rhsMax =   3.03170425113491E-04  1.37981514161084E-01
 cg2d: Sum(rhs),rhsMax =   3.02681022772137E-04  1.37983410605677E-01
 cg2d: Sum(rhs),rhsMax =   3.02186030471184E-04  1.37985308189797E-01
 cg2d: Sum(rhs),rhsMax =   3.01685458671467E-04  1.37987206901309E-01
 cg2d: Sum(rhs),rhsMax =   3.01179315721644E-04  1.37989106729582E-01
 cg2d: Sum(rhs),rhsMax =   3.00667605113529E-04  1.37991007664634E-01
 cg2d: Sum(rhs),rhsMax =   3.00179040506028E-04  1.37992909925213E-01
 cg2d: Sum(rhs),rhsMax =   2.99685543179417E-04  1.37994813064871E-01
 cg2d: Sum(rhs),rhsMax =   2.99187024871536E-04  1.37996717266354E-01
 cg2d: Sum(rhs),rhsMax =   2.98683478773785E-04  1.37998622535340E-01
 cg2d: Sum(rhs),rhsMax =   2.98174908055187E-04  1.38000528857690E-01
 cg2d: Sum(rhs),rhsMax =   2.97661326670986E-04  1.38002436221886E-01
 cg2d: Sum(rhs),rhsMax =   2.97142745660377E-04  1.38004344617416E-01
 cg2d: Sum(rhs),rhsMax =   2.96619171358089E-04  1.38006254034432E-01
 cg2d: Sum(rhs),rhsMax =   2.96090607866141E-04  1.38008164462974E-01
 cg2d: Sum(rhs),rhsMax =   2.95587014022889E-04  1.38010075913430E-01
 cg2d: Sum(rhs),rhsMax =   2.95078924084536E-04  1.38011988322294E-01
 cg2d: Sum(rhs),rhsMax =   2.94565739755176E-04  1.38014177602149E-01
 cg2d: Sum(rhs),rhsMax =   2.94047985951637E-04  1.38016385902596E-01
 cg2d: Sum(rhs),rhsMax =   2.93525705389514E-04  1.38018595327089E-01
 cg2d: Sum(rhs),rhsMax =   2.92998910537834E-04  1.38020805863848E-01
 cg2d: Sum(rhs),rhsMax =   2.92467611969847E-04  1.38023017502039E-01
 cg2d: Sum(rhs),rhsMax =   2.91931815937709E-04  1.38025230231341E-01
 cg2d: Sum(rhs),rhsMax =   2.91391526939635E-04  1.38027444041373E-01
 cg2d: Sum(rhs),rhsMax =   2.90846749065497E-04  1.38029658921410E-01
 cg2d: Sum(rhs),rhsMax =   2.90297486719348E-04  1.38031874860416E-01
 cg2d: Sum(rhs),rhsMax =   2.89743744784619E-04  1.38034091847200E-01
(PID.TID 0000.0001)      cg2d_init_res =   5.80511159525130E-04
(PID.TID 0000.0001)      cg2d_iters(min,last) =      -1      66
(PID.TID 0000.0001)      cg2d_last_res =   8.21424321493642E-08
(PID.TID 0000.0001) // =======================================================
(PID.TID 0000.0001) // Begin MONITOR dynamic field statistics
(PID.TID 0000.0001) // =======================================================
(PID.TID 0000.0001) %MON time_tsnumber                =                 16920
(PID.TID 0000.0001) %MON time_secondsf                =   2.0304000000000E+07
(PID.TID 0000.0001) %MON dynstat_eta_max              =   4.4965394817401E-02
(PID.TID 0000.0001) %MON dynstat_eta_min              =  -2.2345906619547E-02
(PID.TID 0000.0001) %MON dynstat_eta_mean             =  -1.9959051599801E-07
(PID.TID 0000.0001) %MON dynstat_eta_sd               =   1.7602490102921E-02
(PID.TID 0000.0001) %MON dynstat_eta_del2             =   1.7748190875280E-05
(PID.TID 0000.0001) %MON dynstat_uvel_max             =   3.0981843841085E-02
(PID.TID 0000.0001) %MON dynstat_uvel_min             =  -1.5828447083930E-02
(PID.TID 0000.0001) %MON dynstat_uvel_mean            =  -1.3902701196777E-07
(PID.TID 0000.0001) %MON dynstat_uvel_sd              =   6.9085561673725E-03
(PID.TID 0000.0001) %MON dynstat_uvel_del2            =   8.0706473483380E-06
(PID.TID 0000.0001) %MON dynstat_vvel_max             =   8.2639840870908E-02
(PID.TID 0000.0001) %MON dynstat_vvel_min             =  -3.1221170300552E-02
(PID.TID 0000.0001) %MON dynstat_vvel_mean            =   9.5488479643920E-09
(PID.TID 0000.0001) %MON dynstat_vvel_sd              =   1.4619915461072E-02
(PID.TID 0000.0001) %MON dynstat_vvel_del2            =   7.3871358290359E-05
(PID.TID 0000.0001) %MON dynstat_wvel_max             =   7.3272602401266E-09
(PID.TID 0000.0001) %MON dynstat_wvel_min             =  -9.4266912966850E-09
(PID.TID 0000.0001) %MON dynstat_wvel_mean            =   1.5553733116273E-21
(PID.TID 0000.0001) %MON dynstat_wvel_sd              =   3.6847263881076E-09
(PID.TID 0000.0001) %MON dynstat_wvel_del2            =   1.2246350498930E-12
(PID.TID 0000.0001) %MON dynstat_theta_max            =   2.0000000000000E+01
(PID.TID 0000.0001) %MON dynstat_theta_min            =   2.0000000000000E+01
(PID.TID 0000.0001) %MON dynstat_theta_mean           =   2.0000000000000E+01
(PID.TID 0000.0001) %MON dynstat_theta_sd             =   0.0000000000000E+00
(PID.TID 0000.0001) %MON dynstat_theta_del2           =   0.0000000000000E+00
(PID.TID 0000.0001) %MON dynstat_salt_max             =   3.0000000000000E+01
(PID.TID 0000.0001) %MON dynstat_salt_min             =   3.0000000000000E+01
(PID.TID 0000.0001) %MON dynstat_salt_mean            =   3.0000000000000E+01
(PID.TID 0000.0001) %MON dynstat_salt_sd              =   0.0000000000000E+00
(PID.TID 0000.0001) %MON dynstat_salt_del2            =   0.0000000000000E+00
(PID.TID 0000.0001) %MON trAdv_CFL_u_max              =   1.8588891587230E-03
(PID.TID 0000.0001) %MON trAdv_CFL_v_max              =   4.9583183131727E-03
(PID.TID 0000.0001) %MON trAdv_CFL_w_max              =   1.7596625325910E-09
(PID.TID 0000.0001) %MON advcfl_uvel_max              =   1.8589106304651E-03
(PID.TID 0000.0001) %MON advcfl_vvel_max              =   4.9583904522545E-03
(PID.TID 0000.0001) %MON advcfl_wvel_max              =   4.5248118224088E-09
(PID.TID 0000.0001) %MON advcfl_W_hf_max              =   0.0000000000000E+00
(PID.TID 0000.0001) %MON pe_b_mean                    =   3.0396055236385E-07
(PID.TID 0000.0001) %MON ke_max                       =   3.4130011282538E-03
(PID.TID 0000.0001) %MON ke_mean                      =   1.2855612090948E-04
(PID.TID 0000.0001) %MON ke_vol                       =   7.2000000000000E+15
(PID.TID 0000.0001) %MON vort_r_min                   =  -1.4833013401533E-06
(PID.TID 0000.0001) %MON vort_r_max                   =   2.2792995843936E-06
(PID.TID 0000.0001) %MON vort_a_mean                  =   1.0600000000000E-04
(PID.TID 0000.0001) %MON vort_a_sd                    =   3.5365259577425E-06
(PID.TID 0000.0001) %MON vort_p_mean                  =   1.1130000000000E-04
(PID.TID 0000.0001) %MON vort_p_sd                    =   4.1151156110769E-05
(PID.TID 0000.0001) %MON surfExpan_theta_mean         =   3.1106791216947E-20
(PID.TID 0000.0001) %MON surfExpan_salt_mean          =   4.6660502622192E-20
(PID.TID 0000.0001) // =======================================================
(PID.TID 0000.0001) // End MONITOR dynamic field statistics
(PID.TID 0000.0001) // =======================================================
 cg2d: Sum(rhs),rhsMax =   2.89185528325584E-04  1.38036309870558E-01
 cg2d: Sum(rhs),rhsMax =   2.88622842207039E-04  1.38038528919359E-01
 cg2d: Sum(rhs),rhsMax =   2.88055691562157E-04  1.38040748982551E-01
 cg2d: Sum(rhs),rhsMax =   2.87484081290224E-04  1.38042970049124E-01
 cg2d: Sum(rhs),rhsMax =   2.86908016276903E-04  1.38045192108076E-01
 cg2d: Sum(rhs),rhsMax =   2.86327501476617E-04  1.38047415148387E-01
 cg2d: Sum(rhs),rhsMax =   2.85742541867235E-04  1.38049639159021E-01
 cg2d: Sum(rhs),rhsMax =   2.85153142280802E-04  1.38051864128931E-01
 cg2d: Sum(rhs),rhsMax =   2.84559307781674E-04  1.38054090047070E-01
 cg2d: Sum(rhs),rhsMax =   2.83961043290751E-04  1.38056316902398E-01
 cg2d: Sum(rhs),rhsMax =   2.83358353774784E-04  1.38058544683880E-01
 cg2d: Sum(rhs),rhsMax =   2.82751244206140E-04  1.38060773380483E-01
 cg2d: Sum(rhs),rhsMax =   2.82139719618603E-04  1.38063002981175E-01
 cg2d: Sum(rhs),rhsMax =   2.81523785100344E-04  1.38065233474925E-01
 cg2d: Sum(rhs),rhsMax =   2.80903445568934E-04  1.38067464850698E-01
 cg2d: Sum(rhs),rhsMax =   2.80278706280024E-04  1.38069697097459E-01
 cg2d: Sum(rhs),rhsMax =   2.79649572209014E-04  1.38071930204175E-01
 cg2d: Sum(rhs),rhsMax =   2.79016048455985E-04  1.38074164159817E-01
 cg2d: Sum(rhs),rhsMax =   2.78378140352653E-04  1.38076398953353E-01
 cg2d: Sum(rhs),rhsMax =   2.77735852928866E-04  1.38078634573756E-01
 cg2d: Sum(rhs),rhsMax =   2.77089191397972E-04  1.38080871009999E-01
 cg2d: Sum(rhs),rhsMax =   2.76438161017051E-04  1.38083108251056E-01
 cg2d: Sum(rhs),rhsMax =   2.75782767176837E-04  1.38085346285900E-01
 cg2d: Sum(rhs),rhsMax =   2.75123015050882E-04  1.38087585103508E-01
 cg2d: Sum(rhs),rhsMax =   2.74458910095242E-04  1.38089824692857E-01
 cg2d: Sum(rhs),rhsMax =   2.73790457544013E-04  1.38092065042923E-01
 cg2d: Sum(rhs),rhsMax =   2.73117662786730E-04  1.38094306142687E-01
 cg2d: Sum(rhs),rhsMax =   2.72440531425696E-04  1.38096547981126E-01
 cg2d: Sum(rhs),rhsMax =   2.71759068835573E-04  1.38098790547225E-01
 cg2d: Sum(rhs),rhsMax =   2.71073280503150E-04  1.38101033829963E-01
 cg2d: Sum(rhs),rhsMax =   2.70383171994071E-04  1.38103277818329E-01
 cg2d: Sum(rhs),rhsMax =   2.69688748913530E-04  1.38105522501304E-01
 cg2d: Sum(rhs),rhsMax =   2.68990016868629E-04  1.38107767867877E-01
 cg2d: Sum(rhs),rhsMax =   2.68286981610661E-04  1.38110013907035E-01
 cg2d: Sum(rhs),rhsMax =   2.67579648726987E-04  1.38112260607769E-01
 cg2d: Sum(rhs),rhsMax =   2.66868024041310E-04  1.38114507959070E-01
 cg2d: Sum(rhs),rhsMax =   2.66152113141507E-04  1.38116755949929E-01
 cg2d: Sum(rhs),rhsMax =   2.65431922119461E-04  1.38119004569343E-01
 cg2d: Sum(rhs),rhsMax =   2.64707456581484E-04  1.38121253806304E-01
 cg2d: Sum(rhs),rhsMax =   2.63978722545534E-04  1.38123503649813E-01
 cg2d: Sum(rhs),rhsMax =   2.63245725937156E-04  1.38125754088866E-01
 cg2d: Sum(rhs),rhsMax =   2.62508472747597E-04  1.38128005112466E-01
 cg2d: Sum(rhs),rhsMax =   2.61766968972453E-04  1.38130256709613E-01
 cg2d: Sum(rhs),rhsMax =   2.61021220603942E-04  1.38132508869313E-01
 cg2d: Sum(rhs),rhsMax =   2.60271233848708E-04  1.38134761580570E-01
 cg2d: Sum(rhs),rhsMax =   2.59517014695146E-04  1.38137014832393E-01
 cg2d: Sum(rhs),rhsMax =   2.58758569466103E-04  1.38139268613791E-01
 cg2d: Sum(rhs),rhsMax =   2.57995904270670E-04  1.38141522913775E-01
 cg2d: Sum(rhs),rhsMax =   2.57229025393224E-04  1.38143777721359E-01
 cg2d: Sum(rhs),rhsMax =   2.56457939129450E-04  1.38146033025556E-01
 cg2d: Sum(rhs),rhsMax =   2.55682651857587E-04  1.38148288815384E-01
 cg2d: Sum(rhs),rhsMax =   2.54903169900168E-04  1.38150545079864E-01
 cg2d: Sum(rhs),rhsMax =   2.54119499687288E-04  1.38152801808013E-01
 cg2d: Sum(rhs),rhsMax =   2.53331647679813E-04  1.38155058988857E-01
 cg2d: Sum(rhs),rhsMax =   2.52539620414458E-04  1.38157316611419E-01
 cg2d: Sum(rhs),rhsMax =   2.51743424432899E-04  1.38159574664728E-01
 cg2d: Sum(rhs),rhsMax =   2.50943066354837E-04  1.38161833137812E-01
 cg2d: Sum(rhs),rhsMax =   2.50138552594014E-04  1.38164092019703E-01
 cg2d: Sum(rhs),rhsMax =   2.49329889982626E-04  1.38166351299434E-01
 cg2d: Sum(rhs),rhsMax =   2.48517085209266E-04  1.38168610966041E-01
 cg2d: Sum(rhs),rhsMax =   2.47700145024601E-04  1.38170871008563E-01
 cg2d: Sum(rhs),rhsMax =   2.46879076252254E-04  1.38173131416039E-01
 cg2d: Sum(rhs),rhsMax =   2.46053885684487E-04  1.38175392177512E-01
 cg2d: Sum(rhs),rhsMax =   2.45224580127669E-04  1.38177653282028E-01
 cg2d: Sum(rhs),rhsMax =   2.44391166625241E-04  1.38179914718633E-01
 cg2d: Sum(rhs),rhsMax =   2.43553652014910E-04  1.38182176476378E-01
 cg2d: Sum(rhs),rhsMax =   2.42712043319740E-04  1.38184438544315E-01
 cg2d: Sum(rhs),rhsMax =   2.41909813731516E-04  1.38186700698863E-01
 cg2d: Sum(rhs),rhsMax =   2.41103901440867E-04  1.38188963337516E-01
 cg2d: Sum(rhs),rhsMax =   2.40294242450190E-04  1.38191226273734E-01
 cg2d: Sum(rhs),rhsMax =   2.39480850065964E-04  1.38193489479050E-01
 cg2d: Sum(rhs),rhsMax =   2.38663731104411E-04  1.38195752939104E-01
(PID.TID 0000.0001)      cg2d_init_res =   5.77606827246026E-04
(PID.TID 0000.0001)      cg2d_iters(min,last) =      -1      67
(PID.TID 0000.0001)      cg2d_last_res =   7.56025050930198E-08
(PID.TID 0000.0001) // =======================================================
(PID.TID 0000.0001) // Begin MONITOR dynamic field statistics
(PID.TID 0000.0001) // =======================================================
(PID.TID 0000.0001) %MON time_tsnumber                =                 16992
(PID.TID 0000.0001) %MON time_secondsf                =   2.0390400000000E+07
(PID.TID 0000.0001) %MON dynstat_eta_max              =   4.5153070093234E-02
(PID.TID 0000.0001) %MON dynstat_eta_min              =  -2.2298517263901E-02
(PID.TID 0000.0001) %MON dynstat_eta_mean             =  -1.6434708350792E-07
(PID.TID 0000.0001) %MON dynstat_eta_sd               =   1.7731683332141E-02
(PID.TID 0000.0001) %MON dynstat_eta_del2             =   1.7745297908429E-05
(PID.TID 0000.0001) %MON dynstat_uvel_max             =   3.1008336723177E-02
(PID.TID 0000.0001) %MON dynstat_uvel_min             =  -1.5862890066866E-02
(PID.TID 0000.0001) %MON dynstat_uvel_mean            =  -1.3454871855565E-07
(PID.TID 0000.0001) %MON dynstat_uvel_sd              =   6.9209439364329E-03
(PID.TID 0000.0001) %MON dynstat_uvel_del2            =   8.0751631863326E-06
(PID.TID 0000.0001) %MON dynstat_vvel_max             =   8.2729226453585E-02
(PID.TID 0000.0001) %MON dynstat_vvel_min             =  -3.1149584099802E-02
(PID.TID 0000.0001) %MON dynstat_vvel_mean            =   1.0417365696458E-08
(PID.TID 0000.0001) %MON dynstat_vvel_sd              =   1.4640617353543E-02
(PID.TID 0000.0001) %MON dynstat_vvel_del2            =   7.3928626860150E-05
(PID.TID 0000.0001) %MON dynstat_wvel_max             =   7.0067083224421E-09
(PID.TID 0000.0001) %MON dynstat_wvel_min             =  -9.6261261991458E-09
(PID.TID 0000.0001) %MON dynstat_wvel_mean            =   4.8671479488702E-22
(PID.TID 0000.0001) %MON dynstat_wvel_sd              =   3.6663015352289E-09
(PID.TID 0000.0001) %MON dynstat_wvel_del2            =   1.2216846729877E-12
(PID.TID 0000.0001) %MON dynstat_theta_max            =   2.0000000000000E+01
(PID.TID 0000.0001) %MON dynstat_theta_min            =   2.0000000000000E+01
(PID.TID 0000.0001) %MON dynstat_theta_mean           =   2.0000000000000E+01
(PID.TID 0000.0001) %MON dynstat_theta_sd             =   0.0000000000000E+00
(PID.TID 0000.0001) %MON dynstat_theta_del2           =   0.0000000000000E+00
(PID.TID 0000.0001) %MON dynstat_salt_max             =   3.0000000000000E+01
(PID.TID 0000.0001) %MON dynstat_salt_min             =   3.0000000000000E+01
(PID.TID 0000.0001) %MON dynstat_salt_mean            =   3.0000000000000E+01
(PID.TID 0000.0001) %MON dynstat_salt_sd              =   0.0000000000000E+00
(PID.TID 0000.0001) %MON dynstat_salt_del2            =   0.0000000000000E+00
(PID.TID 0000.0001) %MON trAdv_CFL_u_max              =   1.8604776364089E-03
(PID.TID 0000.0001) %MON trAdv_CFL_v_max              =   4.9636771454968E-03
(PID.TID 0000.0001) %MON trAdv_CFL_w_max              =   1.6827153367864E-09
(PID.TID 0000.0001) %MON advcfl_uvel_max              =   1.8605002033906E-03
(PID.TID 0000.0001) %MON advcfl_vvel_max              =   4.9637535872151E-03
(PID.TID 0000.0001) %MON advcfl_wvel_max              =   4.6205405755900E-09
(PID.TID 0000.0001) %MON advcfl_W_hf_max              =   0.0000000000000E+00
(PID.TID 0000.0001) %MON pe_b_mean                    =   3.0843875453577E-07
(PID.TID 0000.0001) %MON ke_max                       =   3.4210212889842E-03
(PID.TID 0000.0001) %MON ke_mean                      =   1.2893817789548E-04
(PID.TID 0000.0001) %MON ke_vol                       =   7.2000000000000E+15
(PID.TID 0000.0001) %MON vort_r_min                   =  -1.4814661646523E-06
(PID.TID 0000.0001) %MON vort_r_max                   =   2.2826874281757E-06
(PID.TID 0000.0001) %MON vort_a_mean                  =   1.0600000000000E-04
(PID.TID 0000.0001) %MON vort_a_sd                    =   3.5365547747462E-06
(PID.TID 0000.0001) %MON vort_p_mean                  =   1.1130000000000E-04
(PID.TID 0000.0001) %MON vort_p_sd                    =   4.1151130248234E-05
(PID.TID 0000.0001) %MON surfExpan_theta_mean         =   9.7324617500918E-21
(PID.TID 0000.0001) %MON surfExpan_salt_mean          =   1.4598692625138E-20
(PID.TID 0000.0001) // =======================================================
(PID.TID 0000.0001) // End MONITOR dynamic field statistics
(PID.TID 0000.0001) // =======================================================
 cg2d: Sum(rhs),rhsMax =   2.37842897475654E-04  1.38198016642184E-01
 cg2d: Sum(rhs),rhsMax =   2.37018360949048E-04  1.38200280577605E-01
 cg2d: Sum(rhs),rhsMax =   2.36190131661299E-04  1.38202544735109E-01
 cg2d: Sum(rhs),rhsMax =   2.35358218590140E-04  1.38204809104424E-01
 cg2d: Sum(rhs),rhsMax =   2.34522630271450E-04  1.38207073674929E-01
 cg2d: Sum(rhs),rhsMax =   2.33683375441740E-04  1.38209338435704E-01
 cg2d: Sum(rhs),rhsMax =   2.32840462942979E-04  1.38211603375682E-01
 cg2d: Sum(rhs),rhsMax =   2.31993901910232E-04  1.38213868483796E-01
 cg2d: Sum(rhs),rhsMax =   2.31143701473241E-04  1.38216133749052E-01
 cg2d: Sum(rhs),rhsMax =   2.30289870931578E-04  1.38218399160532E-01
 cg2d: Sum(rhs),rhsMax =   2.29432419639772E-04  1.38220664707368E-01
 cg2d: Sum(rhs),rhsMax =   2.28571356990454E-04  1.38222930378698E-01
 cg2d: Sum(rhs),rhsMax =   2.27706692262413E-04  1.38225196163646E-01
 cg2d: Sum(rhs),rhsMax =   2.26838435024241E-04  1.38227462051321E-01
 cg2d: Sum(rhs),rhsMax =   2.25966594700304E-04  1.38229728030822E-01
 cg2d: Sum(rhs),rhsMax =   2.25091180800725E-04  1.38231994091250E-01
 cg2d: Sum(rhs),rhsMax =   2.24212202878179E-04  1.38234260221711E-01
 cg2d: Sum(rhs),rhsMax =   2.23329670751906E-04  1.38236526411323E-01
 cg2d: Sum(rhs),rhsMax =   2.22443593943030E-04  1.38238792649207E-01
 cg2d: Sum(rhs),rhsMax =   2.21553982313066E-04  1.38241058924489E-01
 cg2d: Sum(rhs),rhsMax =   2.20660845609781E-04  1.38243325226297E-01
 cg2d: Sum(rhs),rhsMax =   2.19764193697233E-04  1.38245591543762E-01
 cg2d: Sum(rhs),rhsMax =   2.18864036435975E-04  1.38247857866016E-01
 cg2d: Sum(rhs),rhsMax =   2.17960383894814E-04  1.38250124182196E-01
 cg2d: Sum(rhs),rhsMax =   2.17053245976792E-04  1.38252390481440E-01
 cg2d: Sum(rhs),rhsMax =   2.16142632766040E-04  1.38254656752892E-01
 cg2d: Sum(rhs),rhsMax =   2.15228554457520E-04  1.38256922985699E-01
 cg2d: Sum(rhs),rhsMax =   2.14311020882440E-04  1.38259189169011E-01
 cg2d: Sum(rhs),rhsMax =   2.13390042453844E-04  1.38261455291982E-01
 cg2d: Sum(rhs),rhsMax =   2.12465629442787E-04  1.38263721343769E-01
 cg2d: Sum(rhs),rhsMax =   2.11537792032692E-04  1.38265987313534E-01
 cg2d: Sum(rhs),rhsMax =   2.10606540622038E-04  1.38268253190440E-01
 cg2d: Sum(rhs),rhsMax =   2.09671885659670E-04  1.38270518963656E-01
 cg2d: Sum(rhs),rhsMax =   2.08733837473803E-04  1.38272784622353E-01
 cg2d: Sum(rhs),rhsMax =   2.07792406536964E-04  1.38275050155705E-01
 cg2d: Sum(rhs),rhsMax =   2.06847603511267E-04  1.38277315552894E-01
 cg2d: Sum(rhs),rhsMax =   2.05899438813890E-04  1.38279580803099E-01
 cg2d: Sum(rhs),rhsMax =   2.04947923155648E-04  1.38281845895510E-01
 cg2d: Sum(rhs),rhsMax =   2.03993067233382E-04  1.38284110819315E-01
 cg2d: Sum(rhs),rhsMax =   2.03034881681529E-04  1.38286375563710E-01
 cg2d: Sum(rhs),rhsMax =   2.02073377394138E-04  1.38288640117892E-01
 cg2d: Sum(rhs),rhsMax =   2.01108565014783E-04  1.38290904471062E-01
 cg2d: Sum(rhs),rhsMax =   2.00140455529990E-04  1.38293168612427E-01
 cg2d: Sum(rhs),rhsMax =   1.99169059817878E-04  1.38295432531197E-01
 cg2d: Sum(rhs),rhsMax =   1.98194388786124E-04  1.38297696216585E-01
 cg2d: Sum(rhs),rhsMax =   1.97216453476323E-04  1.38299959657808E-01
 cg2d: Sum(rhs),rhsMax =   1.96235264849624E-04  1.38302222844089E-01
 cg2d: Sum(rhs),rhsMax =   1.95250834093152E-04  1.38304485764654E-01
 cg2d: Sum(rhs),rhsMax =   1.94263172272691E-04  1.38306748408733E-01
 cg2d: Sum(rhs),rhsMax =   1.93272290637689E-04  1.38309010765558E-01
 cg2d: Sum(rhs),rhsMax =   1.92278200263501E-04  1.38311272824370E-01
 cg2d: Sum(rhs),rhsMax =   1.91280912475306E-04  1.38313534574410E-01
 cg2d: Sum(rhs),rhsMax =   1.90280438677824E-04  1.38315796004924E-01
 cg2d: Sum(rhs),rhsMax =   1.89276790113767E-04  1.38318057105165E-01
 cg2d: Sum(rhs),rhsMax =   1.88269978226920E-04  1.38320317864386E-01
 cg2d: Sum(rhs),rhsMax =   1.87260014339904E-04  1.38322578271848E-01
 cg2d: Sum(rhs),rhsMax =   1.86246910114195E-04  1.38324838316815E-01
 cg2d: Sum(rhs),rhsMax =   1.85230676917091E-04  1.38327097988553E-01
 cg2d: Sum(rhs),rhsMax =   1.84211326408128E-04  1.38329357276337E-01
 cg2d: Sum(rhs),rhsMax =   1.83188870231167E-04  1.38331616169443E-01
 cg2d: Sum(rhs),rhsMax =   1.82163319834143E-04  1.38333874657152E-01
 cg2d: Sum(rhs),rhsMax =   1.81134687041305E-04  1.38336132728752E-01
 cg2d: Sum(rhs),rhsMax =   1.80102983607397E-04  1.38338390373532E-01
 cg2d: Sum(rhs),rhsMax =   1.79068221297415E-04  1.38340647580787E-01
 cg2d: Sum(rhs),rhsMax =   1.78030411851281E-04  1.38342904339817E-01
 cg2d: Sum(rhs),rhsMax =   1.76989567204404E-04  1.38345160639926E-01
 cg2d: Sum(rhs),rhsMax =   1.75945699215975E-04  1.38347416470424E-01
 cg2d: Sum(rhs),rhsMax =   1.74898819840947E-04  1.38349671820623E-01
 cg2d: Sum(rhs),rhsMax =   1.73848941052047E-04  1.38351926679843E-01
 cg2d: Sum(rhs),rhsMax =   1.72796074758202E-04  1.38354181037405E-01
 cg2d: Sum(rhs),rhsMax =   1.71740233162950E-04  1.38356434882639E-01
 cg2d: Sum(rhs),rhsMax =   1.70681428349946E-04  1.38358688204876E-01
(PID.TID 0000.0001)      cg2d_init_res =   5.74821303836963E-04
(PID.TID 0000.0001)      cg2d_iters(min,last) =      -1      67
(PID.TID 0000.0001)      cg2d_last_res =   9.17117887647466E-08
(PID.TID 0000.0001) // =======================================================
(PID.TID 0000.0001) // Begin MONITOR dynamic field statistics
(PID.TID 0000.0001) // =======================================================
(PID.TID 0000.0001) %MON time_tsnumber                =                 17064
(PID.TID 0000.0001) %MON time_secondsf                =   2.0476800000000E+07
(PID.TID 0000.0001) %MON dynstat_eta_max              =   4.5366316220480E-02
(PID.TID 0000.0001) %MON dynstat_eta_min              =  -2.2227978999168E-02
(PID.TID 0000.0001) %MON dynstat_eta_mean             =  -1.1734368738955E-07
(PID.TID 0000.0001) %MON dynstat_eta_sd               =   1.7846669883783E-02
(PID.TID 0000.0001) %MON dynstat_eta_del2             =   1.7743783633199E-05
(PID.TID 0000.0001) %MON dynstat_uvel_max             =   3.1035774046901E-02
(PID.TID 0000.0001) %MON dynstat_uvel_min             =  -1.5897286509347E-02
(PID.TID 0000.0001) %MON dynstat_uvel_mean            =  -1.2816526079811E-07
(PID.TID 0000.0001) %MON dynstat_uvel_sd              =   6.9273570709530E-03
(PID.TID 0000.0001) %MON dynstat_uvel_del2            =   8.0761130200242E-06
(PID.TID 0000.0001) %MON dynstat_vvel_max             =   8.2822548703756E-02
(PID.TID 0000.0001) %MON dynstat_vvel_min             =  -3.1085080679329E-02
(PID.TID 0000.0001) %MON dynstat_vvel_mean            =   1.1228821636367E-08
(PID.TID 0000.0001) %MON dynstat_vvel_sd              =   1.4661845744187E-02
(PID.TID 0000.0001) %MON dynstat_vvel_del2            =   7.3991245553369E-05
(PID.TID 0000.0001) %MON dynstat_wvel_max             =   6.6527154822325E-09
(PID.TID 0000.0001) %MON dynstat_wvel_min             =  -9.7981117074960E-09
(PID.TID 0000.0001) %MON dynstat_wvel_mean            =   7.2341429636759E-22
(PID.TID 0000.0001) %MON dynstat_wvel_sd              =   3.6464273059084E-09
(PID.TID 0000.0001) %MON dynstat_wvel_del2            =   1.2187642028415E-12
(PID.TID 0000.0001) %MON dynstat_theta_max            =   2.0000000000000E+01
(PID.TID 0000.0001) %MON dynstat_theta_min            =   2.0000000000000E+01
(PID.TID 0000.0001) %MON dynstat_theta_mean           =   2.0000000000000E+01
(PID.TID 0000.0001) %MON dynstat_theta_sd             =   0.0000000000000E+00
(PID.TID 0000.0001) %MON dynstat_theta_del2           =   0.0000000000000E+00
(PID.TID 0000.0001) %MON dynstat_salt_max             =   3.0000000000000E+01
(PID.TID 0000.0001) %MON dynstat_salt_min             =   3.0000000000000E+01
(PID.TID 0000.0001) %MON dynstat_salt_mean            =   3.0000000000000E+01
(PID.TID 0000.0001) %MON dynstat_salt_sd              =   0.0000000000000E+00
(PID.TID 0000.0001) %MON dynstat_salt_del2            =   0.0000000000000E+00
(PID.TID 0000.0001) %MON trAdv_CFL_u_max              =   1.8621233895977E-03
(PID.TID 0000.0001) %MON trAdv_CFL_v_max              =   4.9692741944975E-03
(PID.TID 0000.0001) %MON trAdv_CFL_w_max              =   1.5977498319960E-09
(PID.TID 0000.0001) %MON advcfl_uvel_max              =   1.8621464428140E-03
(PID.TID 0000.0001) %MON advcfl_vvel_max              =   4.9693529222254E-03
(PID.TID 0000.0001) %MON advcfl_wvel_max              =   4.7030936195981E-09
(PID.TID 0000.0001) %MON advcfl_W_hf_max              =   0.0000000000000E+00
(PID.TID 0000.0001) %MON pe_b_mean                    =   3.1245205706137E-07
(PID.TID 0000.0001) %MON ke_max                       =   3.4293894972809E-03
(PID.TID 0000.0001) %MON ke_mean                      =   1.2928768167708E-04
(PID.TID 0000.0001) %MON ke_vol                       =   7.2000000000000E+15
(PID.TID 0000.0001) %MON vort_r_min                   =  -1.4797496051490E-06
(PID.TID 0000.0001) %MON vort_r_max                   =   2.2860061069627E-06
(PID.TID 0000.0001) %MON vort_a_mean                  =   1.0600000000000E-04
(PID.TID 0000.0001) %MON vort_a_sd                    =   3.5365846520854E-06
(PID.TID 0000.0001) %MON vort_p_mean                  =   1.1130000000000E-04
(PID.TID 0000.0001) %MON vort_p_sd                    =   4.1151100820990E-05
(PID.TID 0000.0001) %MON surfExpan_theta_mean         =   1.4467044846040E-20
(PID.TID 0000.0001) %MON surfExpan_salt_mean          =   2.1700883065831E-20
(PID.TID 0000.0001) // =======================================================
(PID.TID 0000.0001) // End MONITOR dynamic field statistics
(PID.TID 0000.0001) // =======================================================
 cg2d: Sum(rhs),rhsMax =   1.69619672341245E-04  1.38360940993453E-01
 cg2d: Sum(rhs),rhsMax =   1.68554977384671E-04  1.38363193237715E-01
 cg2d: Sum(rhs),rhsMax =   1.67487355683261E-04  1.38365444927005E-01
 cg2d: Sum(rhs),rhsMax =   1.66416819449931E-04  1.38367696050680E-01
 cg2d: Sum(rhs),rhsMax =   1.65343381053585E-04  1.38369946598093E-01
 cg2d: Sum(rhs),rhsMax =   1.64267052701809E-04  1.38372196558607E-01
 cg2d: Sum(rhs),rhsMax =   1.63187846767015E-04  1.38374445921590E-01
 cg2d: Sum(rhs),rhsMax =   1.62105775666366E-04  1.38376694676413E-01
 cg2d: Sum(rhs),rhsMax =   1.61020851878392E-04  1.38378942812454E-01
 cg2d: Sum(rhs),rhsMax =   1.59933087766059E-04  1.38381190319094E-01
 cg2d: Sum(rhs),rhsMax =   1.58842495993199E-04  1.38383437185721E-01
 cg2d: Sum(rhs),rhsMax =   1.57749088929819E-04  1.38385683401727E-01
 cg2d: Sum(rhs),rhsMax =   1.56652879281060E-04  1.38387928956510E-01
 cg2d: Sum(rhs),rhsMax =   1.55553879530179E-04  1.38390173839473E-01
 cg2d: Sum(rhs),rhsMax =   1.54452102341192E-04  1.38392418040024E-01
 cg2d: Sum(rhs),rhsMax =   1.53347560455455E-04  1.38394661547576E-01
 cg2d: Sum(rhs),rhsMax =   1.52240266601045E-04  1.38396904351547E-01
 cg2d: Sum(rhs),rhsMax =   1.51130233427585E-04  1.38399146441362E-01
 cg2d: Sum(rhs),rhsMax =   1.50017473717569E-04  1.38401387806450E-01
 cg2d: Sum(rhs),rhsMax =   1.48902000373882E-04  1.38403628436246E-01
 cg2d: Sum(rhs),rhsMax =   1.47783826178673E-04  1.38405868320190E-01
 cg2d: Sum(rhs),rhsMax =   1.46662963967680E-04  1.38408107447726E-01
 cg2d: Sum(rhs),rhsMax =   1.45539426727272E-04  1.38410345808307E-01
 cg2d: Sum(rhs),rhsMax =   1.44413227342590E-04  1.38412583391389E-01
 cg2d: Sum(rhs),rhsMax =   1.43284378714744E-04  1.38414820186435E-01
 cg2d: Sum(rhs),rhsMax =   1.42152893943025E-04  1.38417056182910E-01
 cg2d: Sum(rhs),rhsMax =   1.41018786076759E-04  1.38419291370290E-01
 cg2d: Sum(rhs),rhsMax =   1.39882068123718E-04  1.38421525738053E-01
 cg2d: Sum(rhs),rhsMax =   1.38742753131198E-04  1.38423759275682E-01
 cg2d: Sum(rhs),rhsMax =   1.37600854328650E-04  1.38425991972670E-01
 cg2d: Sum(rhs),rhsMax =   1.36456384621399E-04  1.38428223818510E-01
 cg2d: Sum(rhs),rhsMax =   1.35309357517842E-04  1.38430454802706E-01
 cg2d: Sum(rhs),rhsMax =   1.34373793848681E-04  1.38432684700339E-01
 cg2d: Sum(rhs),rhsMax =   1.33436943262701E-04  1.38434913867917E-01
 cg2d: Sum(rhs),rhsMax =   1.32498850107216E-04  1.38437142204035E-01
 cg2d: Sum(rhs),rhsMax =   1.31559556818605E-04  1.38439369646925E-01
 cg2d: Sum(rhs),rhsMax =   1.30619096926347E-04  1.38441596174258E-01
 cg2d: Sum(rhs),rhsMax =   1.29677489718220E-04  1.38443821773616E-01
 cg2d: Sum(rhs),rhsMax =   1.28734745002685E-04  1.38446046434636E-01
 cg2d: Sum(rhs),rhsMax =   1.27790870666273E-04  1.38448270148740E-01
 cg2d: Sum(rhs),rhsMax =   1.26845877996234E-04  1.38450492907033E-01
 cg2d: Sum(rhs),rhsMax =   1.25899782770270E-04  1.38452714699816E-01
 cg2d: Sum(rhs),rhsMax =   1.24952603240281E-04  1.38454935516621E-01
 cg2d: Sum(rhs),rhsMax =   1.24004358311831E-04  1.38457155346656E-01
 cg2d: Sum(rhs),rhsMax =   1.23055065474094E-04  1.38459374179141E-01
 cg2d: Sum(rhs),rhsMax =   1.22104741444686E-04  1.38461592003473E-01
 cg2d: Sum(rhs),rhsMax =   1.21242270867150E-04  1.38463808886888E-01
 cg2d: Sum(rhs),rhsMax =   1.20379028189282E-04  1.38466024648476E-01
 cg2d: Sum(rhs),rhsMax =   1.19515222783474E-04  1.38468239383921E-01
 cg2d: Sum(rhs),rhsMax =   1.18650831070347E-04  1.38470453077416E-01
 cg2d: Sum(rhs),rhsMax =   1.17785872319932E-04  1.38472665711446E-01
 cg2d: Sum(rhs),rhsMax =   1.16920363414463E-04  1.38474877273954E-01
 cg2d: Sum(rhs),rhsMax =   1.16054316957368E-04  1.38477087754720E-01
 cg2d: Sum(rhs),rhsMax =   1.15187744062595E-04  1.38479297143957E-01
 cg2d: Sum(rhs),rhsMax =   1.14320658235167E-04  1.38481505431808E-01
 cg2d: Sum(rhs),rhsMax =   1.13453074576476E-04  1.38483712608143E-01
 cg2d: Sum(rhs),rhsMax =   1.12585009190752E-04  1.38485918662601E-01
 cg2d: Sum(rhs),rhsMax =   1.11716478482364E-04  1.38488123584730E-01
 cg2d: Sum(rhs),rhsMax =   1.10847498391374E-04  1.38490327364087E-01
 cg2d: Sum(rhs),rhsMax =   1.09978084147232E-04  1.38492529990289E-01
 cg2d: Sum(rhs),rhsMax =   1.09108250709544E-04  1.38494731453018E-01
 cg2d: Sum(rhs),rhsMax =   1.08238012902538E-04  1.38496931741986E-01
 cg2d: Sum(rhs),rhsMax =   1.07367385561033E-04  1.38499130846920E-01
 cg2d: Sum(rhs),rhsMax =   1.06496383833320E-04  1.38501328757536E-01
 cg2d: Sum(rhs),rhsMax =   1.05625022556328E-04  1.38503525463546E-01
 cg2d: Sum(rhs),rhsMax =   1.04753316892381E-04  1.38505720954655E-01
 cg2d: Sum(rhs),rhsMax =   1.03881281514864E-04  1.38507915220577E-01
 cg2d: Sum(rhs),rhsMax =   1.03008931378520E-04  1.38510108251032E-01
 cg2d: Sum(rhs),rhsMax =   1.02136281133289E-04  1.38512300035754E-01
 cg2d: Sum(rhs),rhsMax =   1.01263345493974E-04  1.38514490564484E-01
 cg2d: Sum(rhs),rhsMax =   1.00390139186579E-04  1.38516679826972E-01
 cg2d: Sum(rhs),rhsMax =   9.95166765983086E-05  1.38518867812978E-01
(PID.TID 0000.0001)      cg2d_init_res =   5.72181450493082E-04
(PID.TID 0000.0001)      cg2d_iters(min,last) =      -1      70
(PID.TID 0000.0001)      cg2d_last_res =   9.45474079198252E-08
(PID.TID 0000.0001) // =======================================================
(PID.TID 0000.0001) // Begin MONITOR dynamic field statistics
(PID.TID 0000.0001) // =======================================================
(PID.TID 0000.0001) %MON time_tsnumber                =                 17136
(PID.TID 0000.0001) %MON time_secondsf                =   2.0563200000000E+07
(PID.TID 0000.0001) %MON dynstat_eta_max              =   4.5608167406686E-02
(PID.TID 0000.0001) %MON dynstat_eta_min              =  -2.2135347867173E-02
(PID.TID 0000.0001) %MON dynstat_eta_mean             =  -6.8320642769378E-08
(PID.TID 0000.0001) %MON dynstat_eta_sd               =   1.7946070600570E-02
(PID.TID 0000.0001) %MON dynstat_eta_del2             =   1.7743561491707E-05
(PID.TID 0000.0001) %MON dynstat_uvel_max             =   3.1063423078817E-02
(PID.TID 0000.0001) %MON dynstat_uvel_min             =  -1.5930784759657E-02
(PID.TID 0000.0001) %MON dynstat_uvel_mean            =  -1.1997842197752E-07
(PID.TID 0000.0001) %MON dynstat_uvel_sd              =   6.9277582393460E-03
(PID.TID 0000.0001) %MON dynstat_uvel_del2            =   8.0735264751181E-06
(PID.TID 0000.0001) %MON dynstat_vvel_max             =   8.2923134516280E-02
(PID.TID 0000.0001) %MON dynstat_vvel_min             =  -3.1028704072438E-02
(PID.TID 0000.0001) %MON dynstat_vvel_mean            =   1.1971308148073E-08
(PID.TID 0000.0001) %MON dynstat_vvel_sd              =   1.4683136166501E-02
(PID.TID 0000.0001) %MON dynstat_vvel_del2            =   7.4057870836457E-05
(PID.TID 0000.0001) %MON dynstat_wvel_max             =   6.2756373378215E-09
(PID.TID 0000.0001) %MON dynstat_wvel_min             =  -9.9213324961602E-09
(PID.TID 0000.0001) %MON dynstat_wvel_mean            =   4.7153631991629E-21
(PID.TID 0000.0001) %MON dynstat_wvel_sd              =   3.6255598381607E-09
(PID.TID 0000.0001) %MON dynstat_wvel_del2            =   1.2156338709697E-12
(PID.TID 0000.0001) %MON dynstat_theta_max            =   2.0000000000000E+01
(PID.TID 0000.0001) %MON dynstat_theta_min            =   2.0000000000000E+01
(PID.TID 0000.0001) %MON dynstat_theta_mean           =   2.0000000000000E+01
(PID.TID 0000.0001) %MON dynstat_theta_sd             =   0.0000000000000E+00
(PID.TID 0000.0001) %MON dynstat_theta_del2           =   0.0000000000000E+00
(PID.TID 0000.0001) %MON dynstat_salt_max             =   3.0000000000000E+01
(PID.TID 0000.0001) %MON dynstat_salt_min             =   3.0000000000000E+01
(PID.TID 0000.0001) %MON dynstat_salt_mean            =   3.0000000000000E+01
(PID.TID 0000.0001) %MON dynstat_salt_sd              =   0.0000000000000E+00
(PID.TID 0000.0001) %MON dynstat_salt_del2            =   0.0000000000000E+00
(PID.TID 0000.0001) %MON trAdv_CFL_u_max              =   1.8637824558418E-03
(PID.TID 0000.0001) %MON trAdv_CFL_v_max              =   4.9752959022351E-03
(PID.TID 0000.0001) %MON trAdv_CFL_w_max              =   1.5073405850097E-09
(PID.TID 0000.0001) %MON advcfl_uvel_max              =   1.8638053847290E-03
(PID.TID 0000.0001) %MON advcfl_vvel_max              =   4.9753880709768E-03
(PID.TID 0000.0001) %MON advcfl_wvel_max              =   4.7622395981569E-09
(PID.TID 0000.0001) %MON advcfl_W_hf_max              =   0.0000000000000E+00
(PID.TID 0000.0001) %MON pe_b_mean                    =   3.1594228245521E-07
(PID.TID 0000.0001) %MON ke_max                       =   3.4379031538940E-03
(PID.TID 0000.0001) %MON ke_mean                      =   1.2959759161134E-04
(PID.TID 0000.0001) %MON ke_vol                       =   7.2000000000000E+15
(PID.TID 0000.0001) %MON vort_r_min                   =  -1.4781521944816E-06
(PID.TID 0000.0001) %MON vort_r_max                   =   2.2892231988342E-06
(PID.TID 0000.0001) %MON vort_a_mean                  =   1.0600000000000E-04
(PID.TID 0000.0001) %MON vort_a_sd                    =   3.5366149201625E-06
(PID.TID 0000.0001) %MON vort_p_mean                  =   1.1130000000000E-04
(PID.TID 0000.0001) %MON vort_p_sd                    =   4.1151068104952E-05
(PID.TID 0000.0001) %MON surfExpan_theta_mean         =   9.4301366715399E-20
(PID.TID 0000.0001) %MON surfExpan_salt_mean          =   1.4145331326018E-19
(PID.TID 0000.0001) // =======================================================
(PID.TID 0000.0001) // End MONITOR dynamic field statistics
(PID.TID 0000.0001) // =======================================================
 cg2d: Sum(rhs),rhsMax =   9.86429723814171E-05  1.38521054512262E-01
 cg2d: Sum(rhs),rhsMax =   9.77690410064475E-05  1.38523239914593E-01
 cg2d: Sum(rhs),rhsMax =   9.68948967879834E-05  1.38525424009748E-01
 cg2d: Sum(rhs),rhsMax =   9.60205541731670E-05  1.38527606787509E-01
 cg2d: Sum(rhs),rhsMax =   9.51460274127309E-05  1.38529788237665E-01
 cg2d: Sum(rhs),rhsMax =   9.42713308253835E-05  1.38531968350014E-01
 cg2d: Sum(rhs),rhsMax =   9.33964785250346E-05  1.38534147114360E-01
 cg2d: Sum(rhs),rhsMax =   9.25214845890294E-05  1.38536324520512E-01
 cg2d: Sum(rhs),rhsMax =   9.16463632599203E-05  1.38538500558291E-01
 cg2d: Sum(rhs),rhsMax =   9.07711283681719E-05  1.38540675217521E-01
 cg2d: Sum(rhs),rhsMax =   8.98957938977006E-05  1.38542848488035E-01
 cg2d: Sum(rhs),rhsMax =   8.90203738150965E-05  1.38545020359673E-01
 cg2d: Sum(rhs),rhsMax =   8.81448819159986E-05  1.38547190822283E-01
 cg2d: Sum(rhs),rhsMax =   8.72693318203993E-05  1.38549359865718E-01
 cg2d: Sum(rhs),rhsMax =   8.63937374160116E-05  1.38551527479843E-01
 cg2d: Sum(rhs),rhsMax =   8.55181123040893E-05  1.38553693654523E-01
 cg2d: Sum(rhs),rhsMax =   8.46424700568791E-05  1.38555858379637E-01
 cg2d: Sum(rhs),rhsMax =   8.37668240696414E-05  1.38558021645069E-01
 cg2d: Sum(rhs),rhsMax =   8.28911879254659E-05  1.38560183440709E-01
 cg2d: Sum(rhs),rhsMax =   8.20155749408366E-05  1.38562343756457E-01
 cg2d: Sum(rhs),rhsMax =   8.11399985093169E-05  1.38564502582219E-01
 cg2d: Sum(rhs),rhsMax =   8.02644718400497E-05  1.38566659907909E-01
 cg2d: Sum(rhs),rhsMax =   7.93890081873059E-05  1.38568815723448E-01
 cg2d: Sum(rhs),rhsMax =   7.85136206176013E-05  1.38570970018764E-01
 cg2d: Sum(rhs),rhsMax =   7.76383221898977E-05  1.38573122783796E-01
 cg2d: Sum(rhs),rhsMax =   7.67631259791252E-05  1.38575274008486E-01
 cg2d: Sum(rhs),rhsMax =   7.58880449129194E-05  1.38577423682786E-01
 cg2d: Sum(rhs),rhsMax =   7.50130918241408E-05  1.38579571796658E-01
 cg2d: Sum(rhs),rhsMax =   7.42457209281632E-05  1.38581718274281E-01
 cg2d: Sum(rhs),rhsMax =   7.34788838696382E-05  1.38583863248917E-01
 cg2d: Sum(rhs),rhsMax =   7.27124031551013E-05  1.38586006619445E-01
 cg2d: Sum(rhs),rhsMax =   7.19463857357166E-05  1.38588148396415E-01
 cg2d: Sum(rhs),rhsMax =   7.11808457715653E-05  1.38590288565043E-01
 cg2d: Sum(rhs),rhsMax =   7.04157977166782E-05  1.38592427111872E-01
 cg2d: Sum(rhs),rhsMax =   6.96512478884845E-05  1.38594564027608E-01
 cg2d: Sum(rhs),rhsMax =   6.88872027877745E-05  1.38596699302377E-01
 cg2d: Sum(rhs),rhsMax =   6.81236705349147E-05  1.38598832926802E-01
 cg2d: Sum(rhs),rhsMax =   6.73606620113544E-05  1.38600964891007E-01
 cg2d: Sum(rhs),rhsMax =   6.65981893192740E-05  1.38603095185044E-01
 cg2d: Sum(rhs),rhsMax =   6.58362645246354E-05  1.38605223798858E-01
 cg2d: Sum(rhs),rhsMax =   6.50748988986691E-05  1.38607350722441E-01
 cg2d: Sum(rhs),rhsMax =   6.43141036000714E-05  1.38609475945819E-01
 cg2d: Sum(rhs),rhsMax =   6.35538887982599E-05  1.38611599459076E-01
 cg2d: Sum(rhs),rhsMax =   6.27942648471656E-05  1.38613721252317E-01
 cg2d: Sum(rhs),rhsMax =   6.20352419746159E-05  1.38615841315661E-01
 cg2d: Sum(rhs),rhsMax =   6.12768305082740E-05  1.38617959639222E-01
 cg2d: Sum(rhs),rhsMax =   6.05190408564269E-05  1.38620076213113E-01
 cg2d: Sum(rhs),rhsMax =   5.97618834558139E-05  1.38622191027448E-01
 cg2d: Sum(rhs),rhsMax =   5.90053684156478E-05  1.38624304072346E-01
 cg2d: Sum(rhs),rhsMax =   5.82495060823885E-05  1.38626415337938E-01
 cg2d: Sum(rhs),rhsMax =   5.74943062488110E-05  1.38628524814367E-01
 cg2d: Sum(rhs),rhsMax =   5.67397789736530E-05  1.38630632491785E-01
 cg2d: Sum(rhs),rhsMax =   5.59859341402813E-05  1.38632738360353E-01
 cg2d: Sum(rhs),rhsMax =   5.52327814864603E-05  1.38634842410244E-01
 cg2d: Sum(rhs),rhsMax =   5.44803308373705E-05  1.38636944631635E-01
 cg2d: Sum(rhs),rhsMax =   5.37285918351385E-05  1.38639045014713E-01
 cg2d: Sum(rhs),rhsMax =   5.29775740976141E-05  1.38641143549671E-01
 cg2d: Sum(rhs),rhsMax =   5.22272870643265E-05  1.38643240226712E-01
 cg2d: Sum(rhs),rhsMax =   5.14777403077399E-05  1.38645335036047E-01
 cg2d: Sum(rhs),rhsMax =   5.07289430432467E-05  1.38647427967895E-01
 cg2d: Sum(rhs),rhsMax =   4.99809047015583E-05  1.38649519012486E-01
 cg2d: Sum(rhs),rhsMax =   4.92336343969795E-05  1.38651608160054E-01
 cg2d: Sum(rhs),rhsMax =   4.84871413020532E-05  1.38653695400847E-01
 cg2d: Sum(rhs),rhsMax =   4.77414345403226E-05  1.38655780725119E-01
 cg2d: Sum(rhs),rhsMax =   4.69965229781657E-05  1.38657864123133E-01
 cg2d: Sum(rhs),rhsMax =   4.62524156296506E-05  1.38659945585161E-01
 cg2d: Sum(rhs),rhsMax =   4.55091212979899E-05  1.38662025101483E-01
 cg2d: Sum(rhs),rhsMax =   4.47666487337298E-05  1.38664102662389E-01
 cg2d: Sum(rhs),rhsMax =   4.40250066372477E-05  1.38666178258176E-01
 cg2d: Sum(rhs),rhsMax =   4.32842036401362E-05  1.38668251879151E-01
 cg2d: Sum(rhs),rhsMax =   4.25442482852771E-05  1.38670323515631E-01
 cg2d: Sum(rhs),rhsMax =   4.18051490707026E-05  1.38672393157940E-01
(PID.TID 0000.0001)      cg2d_init_res =   5.69714751428872E-04
(PID.TID 0000.0001)      cg2d_iters(min,last) =      -1      71
(PID.TID 0000.0001)      cg2d_last_res =   9.25853945006527E-08
(PID.TID 0000.0001) // =======================================================
(PID.TID 0000.0001) // Begin MONITOR dynamic field statistics
(PID.TID 0000.0001) // =======================================================
(PID.TID 0000.0001) %MON time_tsnumber                =                 17208
(PID.TID 0000.0001) %MON time_secondsf                =   2.0649600000000E+07
(PID.TID 0000.0001) %MON dynstat_eta_max              =   4.5875017456535E-02
(PID.TID 0000.0001) %MON dynstat_eta_min              =  -2.2021997916293E-02
(PID.TID 0000.0001) %MON dynstat_eta_mean             =  -2.8474661016436E-08
(PID.TID 0000.0001) %MON dynstat_eta_sd               =   1.8028714008411E-02
(PID.TID 0000.0001) %MON dynstat_eta_del2             =   1.7744523383093E-05
(PID.TID 0000.0001) %MON dynstat_uvel_max             =   3.1090555027255E-02
(PID.TID 0000.0001) %MON dynstat_uvel_min             =  -1.5962561931050E-02
(PID.TID 0000.0001) %MON dynstat_uvel_mean            =  -1.1011028479344E-07
(PID.TID 0000.0001) %MON dynstat_uvel_sd              =   6.9221900236454E-03
(PID.TID 0000.0001) %MON dynstat_uvel_del2            =   8.0674946592755E-06
(PID.TID 0000.0001) %MON dynstat_vvel_max             =   8.3032956771128E-02
(PID.TID 0000.0001) %MON dynstat_vvel_min             =  -3.0981332349090E-02
(PID.TID 0000.0001) %MON dynstat_vvel_mean            =   1.2634585548323E-08
(PID.TID 0000.0001) %MON dynstat_vvel_sd              =   1.4704027233056E-02
(PID.TID 0000.0001) %MON dynstat_vvel_del2            =   7.4127114632679E-05
(PID.TID 0000.0001) %MON dynstat_wvel_max             =   5.9058957268280E-09
(PID.TID 0000.0001) %MON dynstat_wvel_min             =  -1.0038505902339E-08
(PID.TID 0000.0001) %MON dynstat_wvel_mean            =   1.4728119721339E-21
(PID.TID 0000.0001) %MON dynstat_wvel_sd              =   3.6042105465439E-09
(PID.TID 0000.0001) %MON dynstat_wvel_del2            =   1.2079237054661E-12
(PID.TID 0000.0001) %MON dynstat_theta_max            =   2.0000000000000E+01
(PID.TID 0000.0001) %MON dynstat_theta_min            =   2.0000000000000E+01
(PID.TID 0000.0001) %MON dynstat_theta_mean           =   2.0000000000000E+01
(PID.TID 0000.0001) %MON dynstat_theta_sd             =   0.0000000000000E+00
(PID.TID 0000.0001) %MON dynstat_theta_del2           =   0.0000000000000E+00
(PID.TID 0000.0001) %MON dynstat_salt_max             =   3.0000000000000E+01
(PID.TID 0000.0001) %MON dynstat_salt_min             =   3.0000000000000E+01
(PID.TID 0000.0001) %MON dynstat_salt_mean            =   3.0000000000000E+01
(PID.TID 0000.0001) %MON dynstat_salt_sd              =   0.0000000000000E+00
(PID.TID 0000.0001) %MON dynstat_salt_del2            =   0.0000000000000E+00
(PID.TID 0000.0001) %MON trAdv_CFL_u_max              =   1.8654110997634E-03
(PID.TID 0000.0001) %MON trAdv_CFL_v_max              =   4.9818868491499E-03
(PID.TID 0000.0001) %MON trAdv_CFL_w_max              =   1.4187696689623E-09
(PID.TID 0000.0001) %MON advcfl_uvel_max              =   1.8654333016353E-03
(PID.TID 0000.0001) %MON advcfl_vvel_max              =   4.9819774062677E-03
(PID.TID 0000.0001) %MON advcfl_wvel_max              =   4.8184828331228E-09
(PID.TID 0000.0001) %MON advcfl_W_hf_max              =   0.0000000000000E+00
(PID.TID 0000.0001) %MON pe_b_mean                    =   3.1885887275071E-07
(PID.TID 0000.0001) %MON ke_max                       =   3.4463614085083E-03
(PID.TID 0000.0001) %MON ke_mean                      =   1.2986152303971E-04
(PID.TID 0000.0001) %MON ke_vol                       =   7.2000000000000E+15
(PID.TID 0000.0001) %MON vort_r_min                   =  -1.4766724724692E-06
(PID.TID 0000.0001) %MON vort_r_max                   =   2.2926789613876E-06
(PID.TID 0000.0001) %MON vort_a_mean                  =   1.0600000000000E-04
(PID.TID 0000.0001) %MON vort_a_sd                    =   3.5366449084752E-06
(PID.TID 0000.0001) %MON vort_p_mean                  =   1.1130000000000E-04
(PID.TID 0000.0001) %MON vort_p_sd                    =   4.1151032451987E-05
(PID.TID 0000.0001) %MON surfExpan_theta_mean         =   2.9451443752906E-20
(PID.TID 0000.0001) %MON surfExpan_salt_mean          =   4.4177797222902E-20
(PID.TID 0000.0001) // =======================================================
(PID.TID 0000.0001) // End MONITOR dynamic field statistics
(PID.TID 0000.0001) // =======================================================
 cg2d: Sum(rhs),rhsMax =   4.10669143804292E-05  1.38674460796411E-01
 cg2d: Sum(rhs),rhsMax =   4.03295523637090E-05  1.38676526421386E-01
 cg2d: Sum(rhs),rhsMax =   3.95930713885627E-05  1.38678590023219E-01
 cg2d: Sum(rhs),rhsMax =   3.88574796308522E-05  1.38680651592267E-01
 cg2d: Sum(rhs),rhsMax =   3.81227851662591E-05  1.38682711118901E-01
 cg2d: Sum(rhs),rhsMax =   3.73889960641974E-05  1.38684768593501E-01
 cg2d: Sum(rhs),rhsMax =   3.66561201380327E-05  1.38686824006452E-01
 cg2d: Sum(rhs),rhsMax =   3.59241652861499E-05  1.38688877348151E-01
 cg2d: Sum(rhs),rhsMax =   3.51931393973350E-05  1.38690928609005E-01
 cg2d: Sum(rhs),rhsMax =   3.44630502158013E-05  1.38692977779428E-01
 cg2d: Sum(rhs),rhsMax =   3.37339052539250E-05  1.38695024849845E-01
 cg2d: Sum(rhs),rhsMax =   3.30057121181501E-05  1.38697069810686E-01
 cg2d: Sum(rhs),rhsMax =   3.22784783032383E-05  1.38699112652398E-01
 cg2d: Sum(rhs),rhsMax =   3.15522112192875E-05  1.38701153365430E-01
 cg2d: Sum(rhs),rhsMax =   3.08269181898751E-05  1.38703191940242E-01
 cg2d: Sum(rhs),rhsMax =   3.01026065402414E-05  1.38705228367308E-01
 cg2d: Sum(rhs),rhsMax =   2.93792834949666E-05  1.38707262637105E-01
 cg2d: Sum(rhs),rhsMax =   2.86569561202951E-05  1.38709294740121E-01
 cg2d: Sum(rhs),rhsMax =   2.79356314192717E-05  1.38711324666856E-01
 cg2d: Sum(rhs),rhsMax =   2.72153164503778E-05  1.38713352407818E-01
 cg2d: Sum(rhs),rhsMax =   2.64960180979797E-05  1.38715377953522E-01
 cg2d: Sum(rhs),rhsMax =   2.57777431364398E-05  1.38717401294498E-01
 cg2d: Sum(rhs),rhsMax =   2.50604984101113E-05  1.38719422421278E-01
 cg2d: Sum(rhs),rhsMax =   2.43442905520372E-05  1.38721441324412E-01
 cg2d: Sum(rhs),rhsMax =   2.36291262313343E-05  1.38723457994451E-01
 cg2d: Sum(rhs),rhsMax =   2.29150119066103E-05  1.38725472421962E-01
 cg2d: Sum(rhs),rhsMax =   2.22019541156193E-05  1.38727484597519E-01
 cg2d: Sum(rhs),rhsMax =   2.14899591425548E-05  1.38729494511706E-01
 cg2d: Sum(rhs),rhsMax =   2.07790334805563E-05  1.38731502155117E-01
 cg2d: Sum(rhs),rhsMax =   2.00691832231694E-05  1.38733507518353E-01
 cg2d: Sum(rhs),rhsMax =   1.93604146523658E-05  1.38735510592029E-01
 cg2d: Sum(rhs),rhsMax =   1.86527337878960E-05  1.38737511366767E-01
 cg2d: Sum(rhs),rhsMax =   1.79461467173037E-05  1.38739509833199E-01
 cg2d: Sum(rhs),rhsMax =   1.72406593328704E-05  1.38741505981968E-01
 cg2d: Sum(rhs),rhsMax =   1.65362776035740E-05  1.38743499803725E-01
 cg2d: Sum(rhs),rhsMax =   1.58330073740127E-05  1.38745491289131E-01
 cg2d: Sum(rhs),rhsMax =   1.51308542648493E-05  1.38747480428860E-01
 cg2d: Sum(rhs),rhsMax =   1.44298240382593E-05  1.38749467213591E-01
 cg2d: Sum(rhs),rhsMax =   1.37299222439883E-05  1.38751451634017E-01
 cg2d: Sum(rhs),rhsMax =   1.30311546122251E-05  1.38753433680838E-01
 cg2d: Sum(rhs),rhsMax =   1.23335264490812E-05  1.38755413344766E-01
 cg2d: Sum(rhs),rhsMax =   1.16370431662840E-05  1.38757390616521E-01
 cg2d: Sum(rhs),rhsMax =   1.09417100651521E-05  1.38759365486836E-01
 cg2d: Sum(rhs),rhsMax =   1.02475324467964E-05  1.38761337946452E-01
 cg2d: Sum(rhs),rhsMax =   9.55451545131113E-06  1.38763307986117E-01
 cg2d: Sum(rhs),rhsMax =   8.86266432030373E-06  1.38765275596597E-01
 cg2d: Sum(rhs),rhsMax =   8.17198399110774E-06  1.38767240768659E-01
 cg2d: Sum(rhs),rhsMax =   7.48247944581341E-06  1.38769203493088E-01
 cg2d: Sum(rhs),rhsMax =   6.79415562870531E-06  1.38771163760674E-01
 cg2d: Sum(rhs),rhsMax =   6.10701735769253E-06  1.38773121562218E-01
 cg2d: Sum(rhs),rhsMax =   5.42106942286614E-06  1.38775076888534E-01
 cg2d: Sum(rhs),rhsMax =   4.73631653336373E-06  1.38777029730444E-01
 cg2d: Sum(rhs),rhsMax =   4.05276327308628E-06  1.38778980078778E-01
 cg2d: Sum(rhs),rhsMax =   3.37041430588207E-06  1.38780927924382E-01
 cg2d: Sum(rhs),rhsMax =   2.68927403585320E-06  1.38782873258107E-01
 cg2d: Sum(rhs),rhsMax =   2.00934702848481E-06  1.38784816070817E-01
 cg2d: Sum(rhs),rhsMax =   1.33063757443066E-06  1.38786756353387E-01
 cg2d: Sum(rhs),rhsMax =   6.53149940242279E-07  1.38788694096698E-01
 cg2d: Sum(rhs),rhsMax =  -2.31115313727159E-08  1.38790629291647E-01
 cg2d: Sum(rhs),rhsMax =  -6.98142706560476E-07  1.38792561929138E-01
 cg2d: Sum(rhs),rhsMax =  -1.37193960660521E-06  1.38794492000088E-01
 cg2d: Sum(rhs),rhsMax =  -2.04449798281176E-06  1.38796419495421E-01
 cg2d: Sum(rhs),rhsMax =  -2.71581399837687E-06  1.38798344406072E-01
 cg2d: Sum(rhs),rhsMax =  -3.38588360959680E-06  1.38800266722992E-01
 cg2d: Sum(rhs),rhsMax =  -4.05470325373723E-06  1.38802186437136E-01
 cg2d: Sum(rhs),rhsMax =  -4.72226890317010E-06  1.38804103539470E-01
 cg2d: Sum(rhs),rhsMax =  -5.38857690321210E-06  1.38806018020977E-01
 cg2d: Sum(rhs),rhsMax =  -6.05362354572092E-06  1.38807929872643E-01
 cg2d: Sum(rhs),rhsMax =  -6.71740550358454E-06  1.38809839085469E-01
 cg2d: Sum(rhs),rhsMax =  -7.37991902880451E-06  1.38811745650465E-01
 cg2d: Sum(rhs),rhsMax =  -8.04116068930071E-06  1.38813649558653E-01
 cg2d: Sum(rhs),rhsMax =  -8.60800159788438E-06  1.38815551268140E-01
(PID.TID 0000.0001)      cg2d_init_res =   5.67448211439292E-04
(PID.TID 0000.0001)      cg2d_iters(min,last) =      -1      72
(PID.TID 0000.0001)      cg2d_last_res =   9.44094594648715E-08
(PID.TID 0000.0001) // =======================================================
(PID.TID 0000.0001) // Begin MONITOR dynamic field statistics
(PID.TID 0000.0001) // =======================================================
(PID.TID 0000.0001) %MON time_tsnumber                =                 17280
(PID.TID 0000.0001) %MON time_secondsf                =   2.0736000000000E+07
(PID.TID 0000.0001) %MON dynstat_eta_max              =   4.6154695435646E-02
(PID.TID 0000.0001) %MON dynstat_eta_min              =  -2.1889583480776E-02
(PID.TID 0000.0001) %MON dynstat_eta_mean             =   6.3673394419034E-09
(PID.TID 0000.0001) %MON dynstat_eta_sd               =   1.8093640244027E-02
(PID.TID 0000.0001) %MON dynstat_eta_del2             =   1.7746541697815E-05
(PID.TID 0000.0001) %MON dynstat_uvel_max             =   3.1116456244209E-02
(PID.TID 0000.0001) %MON dynstat_uvel_min             =  -1.5991835707119E-02
(PID.TID 0000.0001) %MON dynstat_uvel_mean            =  -9.8707303905557E-08
(PID.TID 0000.0001) %MON dynstat_uvel_sd              =   6.9107716105235E-03
(PID.TID 0000.0001) %MON dynstat_uvel_del2            =   8.0581623080603E-06
(PID.TID 0000.0001) %MON dynstat_vvel_max             =   8.3139643584774E-02
(PID.TID 0000.0001) %MON dynstat_vvel_min             =  -3.0943667337905E-02
(PID.TID 0000.0001) %MON dynstat_vvel_mean            =   1.3208345332659E-08
(PID.TID 0000.0001) %MON dynstat_vvel_sd              =   1.4724068413215E-02
(PID.TID 0000.0001) %MON dynstat_vvel_del2            =   7.4197566061603E-05
(PID.TID 0000.0001) %MON dynstat_wvel_max             =   5.5162409058539E-09
(PID.TID 0000.0001) %MON dynstat_wvel_min             =  -1.0095989190741E-08
(PID.TID 0000.0001) %MON dynstat_wvel_mean            =  -7.1286321043671E-21
(PID.TID 0000.0001) %MON dynstat_wvel_sd              =   3.5829177672972E-09
(PID.TID 0000.0001) %MON dynstat_wvel_del2            =   1.2042501395053E-12
(PID.TID 0000.0001) %MON dynstat_theta_max            =   2.0000000000000E+01
(PID.TID 0000.0001) %MON dynstat_theta_min            =   2.0000000000000E+01
(PID.TID 0000.0001) %MON dynstat_theta_mean           =   2.0000000000000E+01
(PID.TID 0000.0001) %MON dynstat_theta_sd             =   0.0000000000000E+00
(PID.TID 0000.0001) %MON dynstat_theta_del2           =   0.0000000000000E+00
(PID.TID 0000.0001) %MON dynstat_salt_max             =   3.0000000000000E+01
(PID.TID 0000.0001) %MON dynstat_salt_min             =   3.0000000000000E+01
(PID.TID 0000.0001) %MON dynstat_salt_mean            =   3.0000000000000E+01
(PID.TID 0000.0001) %MON dynstat_salt_sd              =   0.0000000000000E+00
(PID.TID 0000.0001) %MON dynstat_salt_del2            =   0.0000000000000E+00
(PID.TID 0000.0001) %MON trAdv_CFL_u_max              =   1.8669664852605E-03
(PID.TID 0000.0001) %MON trAdv_CFL_v_max              =   4.9882916304075E-03
(PID.TID 0000.0001) %MON trAdv_CFL_w_max              =   1.3252094705240E-09
(PID.TID 0000.0001) %MON advcfl_uvel_max              =   1.8669873746526E-03
(PID.TID 0000.0001) %MON advcfl_vvel_max              =   4.9883786150864E-03
(PID.TID 0000.0001) %MON advcfl_wvel_max              =   4.8460748115554E-09
(PID.TID 0000.0001) %MON advcfl_W_hf_max              =   0.0000000000000E+00
(PID.TID 0000.0001) %MON pe_b_mean                    =   3.2115960075198E-07
(PID.TID 0000.0001) %MON ke_max                       =   3.4545680951424E-03
(PID.TID 0000.0001) %MON ke_mean                      =   1.3007383615905E-04
(PID.TID 0000.0001) %MON ke_vol                       =   7.2000000000000E+15
(PID.TID 0000.0001) %MON vort_r_min                   =  -1.4753070950338E-06
(PID.TID 0000.0001) %MON vort_r_max                   =   2.2958581200962E-06
(PID.TID 0000.0001) %MON vort_a_mean                  =   1.0600000000000E-04
(PID.TID 0000.0001) %MON vort_a_sd                    =   3.5366739557735E-06
(PID.TID 0000.0001) %MON vort_p_mean                  =   1.1130000000000E-04
(PID.TID 0000.0001) %MON vort_p_sd                    =   4.1150994284740E-05
(PID.TID 0000.0001) %MON surfExpan_theta_mean         =  -1.4257529478022E-19
(PID.TID 0000.0001) %MON surfExpan_salt_mean          =  -2.1386325796710E-19
(PID.TID 0000.0001) // =======================================================
(PID.TID 0000.0001) // End MONITOR dynamic field statistics
(PID.TID 0000.0001) // =======================================================
 cg2d: Sum(rhs),rhsMax =  -9.17368740574551E-06  1.38817449876790E-01
 cg2d: Sum(rhs),rhsMax =  -9.73799303760365E-06  1.38819345760091E-01
 cg2d: Sum(rhs),rhsMax =  -1.03009757001574E-05  1.38821238956284E-01
 cg2d: Sum(rhs),rhsMax =  -1.08626367856636E-05  1.38823129452590E-01
 cg2d: Sum(rhs),rhsMax =  -1.14229736715935E-05  1.38825017238095E-01
 cg2d: Sum(rhs),rhsMax =  -1.19819853794129E-05  1.38826902303925E-01
 cg2d: Sum(rhs),rhsMax =  -1.25396712327532E-05  1.38828784641426E-01
 cg2d: Sum(rhs),rhsMax =  -1.30960299031544E-05  1.38830664241848E-01
 cg2d: Sum(rhs),rhsMax =  -1.36510596733495E-05  1.38832541096331E-01
 cg2d: Sum(rhs),rhsMax =  -1.42047586018075E-05  1.38834415195968E-01
 cg2d: Sum(rhs),rhsMax =  -1.47571246376715E-05  1.38836286531873E-01
 cg2d: Sum(rhs),rhsMax =  -1.53081561657404E-05  1.38838155095193E-01
 cg2d: Sum(rhs),rhsMax =  -1.58578517431198E-05  1.38840020877102E-01
 cg2d: Sum(rhs),rhsMax =  -1.64062099225421E-05  1.38841883868792E-01
 cg2d: Sum(rhs),rhsMax =  -1.69532293108508E-05  1.38843744061468E-01
 cg2d: Sum(rhs),rhsMax =  -1.74989085383248E-05  1.38845601446343E-01
 cg2d: Sum(rhs),rhsMax =  -1.80432464324358E-05  1.38847456014638E-01
 cg2d: Sum(rhs),rhsMax =  -1.85862415912081E-05  1.38849307757583E-01
 cg2d: Sum(rhs),rhsMax =  -1.91278928172384E-05  1.38851156666416E-01
 cg2d: Sum(rhs),rhsMax =  -1.96681991071193E-05  1.38853002732385E-01
 cg2d: Sum(rhs),rhsMax =  -2.02071592583777E-05  1.38854845946752E-01
 cg2d: Sum(rhs),rhsMax =  -2.07447720794139E-05  1.38856686300789E-01
 cg2d: Sum(rhs),rhsMax =  -2.12810367979854E-05  1.38858523785779E-01
 cg2d: Sum(rhs),rhsMax =  -2.18159524916764E-05  1.38860358393020E-01
 cg2d: Sum(rhs),rhsMax =  -2.23495180615620E-05  1.38862190113820E-01
 cg2d: Sum(rhs),rhsMax =  -2.28817327956052E-05  1.38864018939500E-01
 cg2d: Sum(rhs),rhsMax =  -2.34125958312563E-05  1.38865844861392E-01
 cg2d: Sum(rhs),rhsMax =  -2.39421065143580E-05  1.38867667870836E-01
 cg2d: Sum(rhs),rhsMax =  -2.44702640731275E-05  1.38869487959186E-01
 cg2d: Sum(rhs),rhsMax =  -2.49970678924353E-05  1.38871305117807E-01
 cg2d: Sum(rhs),rhsMax =  -2.55225174468840E-05  1.38873119338075E-01
 cg2d: Sum(rhs),rhsMax =  -2.60466120668825E-05  1.38874930611377E-01
 cg2d: Sum(rhs),rhsMax =  -2.65693513776897E-05  1.38876738929112E-01
 cg2d: Sum(rhs),rhsMax =  -2.70907347230745E-05  1.38878544282691E-01
 cg2d: Sum(rhs),rhsMax =  -2.76107619181804E-05  1.38880346663536E-01
 cg2d: Sum(rhs),rhsMax =  -2.81294325407628E-05  1.38882146063082E-01
 cg2d: Sum(rhs),rhsMax =  -2.86467463074362E-05  1.38883942472773E-01
 cg2d: Sum(rhs),rhsMax =  -2.91627028725840E-05  1.38885735884068E-01
 cg2d: Sum(rhs),rhsMax =  -2.96773019866203E-05  1.38887526288434E-01
 cg2d: Sum(rhs),rhsMax =  -3.01905435255772E-05  1.38889313677353E-01
 cg2d: Sum(rhs),rhsMax =  -3.07024274894523E-05  1.38891098042316E-01
 cg2d: Sum(rhs),rhsMax =  -3.12129536887947E-05  1.38892879374828E-01
 cg2d: Sum(rhs),rhsMax =  -3.17221220373668E-05  1.38894657666403E-01
 cg2d: Sum(rhs),rhsMax =  -3.22299326336265E-05  1.38896432908570E-01
 cg2d: Sum(rhs),rhsMax =  -3.27363853953313E-05  1.38898205092866E-01
 cg2d: Sum(rhs),rhsMax =  -3.32414806313757E-05  1.38899974210845E-01
 cg2d: Sum(rhs),rhsMax =  -3.37452182956922E-05  1.38901740254068E-01
 cg2d: Sum(rhs),rhsMax =  -3.42475986766962E-05  1.38903503214110E-01
 cg2d: Sum(rhs),rhsMax =  -3.47486219613906E-05  1.38905263082556E-01
 cg2d: Sum(rhs),rhsMax =  -3.52482884197957E-05  1.38907019851008E-01
 cg2d: Sum(rhs),rhsMax =  -3.57465983843426E-05  1.38908773511072E-01
 cg2d: Sum(rhs),rhsMax =  -3.62435522564420E-05  1.38910524054375E-01
 cg2d: Sum(rhs),rhsMax =  -3.67391502900521E-05  1.38912271472547E-01
 cg2d: Sum(rhs),rhsMax =  -3.72333930447524E-05  1.38914015757238E-01
 cg2d: Sum(rhs),rhsMax =  -3.77262810133594E-05  1.38915756900104E-01
 cg2d: Sum(rhs),rhsMax =  -3.82178146496343E-05  1.38917494892815E-01
 cg2d: Sum(rhs),rhsMax =  -3.87079946035920E-05  1.38919229727055E-01
 cg2d: Sum(rhs),rhsMax =  -3.91968213420430E-05  1.38920961394518E-01
 cg2d: Sum(rhs),rhsMax =  -3.96842956033733E-05  1.38922689886910E-01
 cg2d: Sum(rhs),rhsMax =  -4.01704181485262E-05  1.38924415195951E-01
 cg2d: Sum(rhs),rhsMax =  -4.06551894844929E-05  1.38926137313370E-01
 cg2d: Sum(rhs),rhsMax =  -4.11386105719069E-05  1.38927856230913E-01
 cg2d: Sum(rhs),rhsMax =  -4.16206821828111E-05  1.38929571940331E-01
 cg2d: Sum(rhs),rhsMax =  -4.21014051053192E-05  1.38931284433395E-01
 cg2d: Sum(rhs),rhsMax =  -4.25807801644144E-05  1.38932993701884E-01
 cg2d: Sum(rhs),rhsMax =  -4.30588084663229E-05  1.38934699737588E-01
 cg2d: Sum(rhs),rhsMax =  -4.35354907865251E-05  1.38936402532314E-01
 cg2d: Sum(rhs),rhsMax =  -4.40108282045732E-05  1.38938102077878E-01
 cg2d: Sum(rhs),rhsMax =  -4.44848218140873E-05  1.38939798366108E-01
 cg2d: Sum(rhs),rhsMax =  -4.49574725821982E-05  1.38941491388846E-01
 cg2d: Sum(rhs),rhsMax =  -4.54287816481699E-05  1.38943181137943E-01
 cg2d: Sum(rhs),rhsMax =  -4.58987501957137E-05  1.38944867605269E-01
(PID.TID 0000.0001)      cg2d_init_res =   5.65403962164149E-04
(PID.TID 0000.0001)      cg2d_iters(min,last) =      -1      72
(PID.TID 0000.0001)      cg2d_last_res =   9.75033813308845E-08
(PID.TID 0000.0001) // =======================================================
(PID.TID 0000.0001) // Begin MONITOR dynamic field statistics
(PID.TID 0000.0001) // =======================================================
(PID.TID 0000.0001) %MON time_tsnumber                =                 17352
(PID.TID 0000.0001) %MON time_secondsf                =   2.0822400000000E+07
(PID.TID 0000.0001) %MON dynstat_eta_max              =   4.6442693454240E-02
(PID.TID 0000.0001) %MON dynstat_eta_min              =  -2.1740038117505E-02
(PID.TID 0000.0001) %MON dynstat_eta_mean             =   3.2212937222194E-08
(PID.TID 0000.0001) %MON dynstat_eta_sd               =   1.8140103764662E-02
(PID.TID 0000.0001) %MON dynstat_eta_del2             =   1.7749471624699E-05
(PID.TID 0000.0001) %MON dynstat_uvel_max             =   3.1140439233396E-02
(PID.TID 0000.0001) %MON dynstat_uvel_min             =  -1.6017875323938E-02
(PID.TID 0000.0001) %MON dynstat_uvel_mean            =  -8.5935516785125E-08
(PID.TID 0000.0001) %MON dynstat_uvel_sd              =   6.8936947688781E-03
(PID.TID 0000.0001) %MON dynstat_uvel_del2            =   8.0457190655888E-06
(PID.TID 0000.0001) %MON dynstat_vvel_max             =   8.3240900001700E-02
(PID.TID 0000.0001) %MON dynstat_vvel_min             =  -3.0916226589654E-02
(PID.TID 0000.0001) %MON dynstat_vvel_mean            =   1.3683342305167E-08
(PID.TID 0000.0001) %MON dynstat_vvel_sd              =   1.4742827564269E-02
(PID.TID 0000.0001) %MON dynstat_vvel_del2            =   7.4267812972593E-05
(PID.TID 0000.0001) %MON dynstat_wvel_max             =   5.1205177839438E-09
(PID.TID 0000.0001) %MON dynstat_wvel_min             =  -1.0136797236046E-08
(PID.TID 0000.0001) %MON dynstat_wvel_mean            =   1.3176663237068E-21
(PID.TID 0000.0001) %MON dynstat_wvel_sd              =   3.5622196979989E-09
(PID.TID 0000.0001) %MON dynstat_wvel_del2            =   1.1988721074407E-12
(PID.TID 0000.0001) %MON dynstat_theta_max            =   2.0000000000000E+01
(PID.TID 0000.0001) %MON dynstat_theta_min            =   2.0000000000000E+01
(PID.TID 0000.0001) %MON dynstat_theta_mean           =   2.0000000000000E+01
(PID.TID 0000.0001) %MON dynstat_theta_sd             =   0.0000000000000E+00
(PID.TID 0000.0001) %MON dynstat_theta_del2           =   0.0000000000000E+00
(PID.TID 0000.0001) %MON dynstat_salt_max             =   3.0000000000000E+01
(PID.TID 0000.0001) %MON dynstat_salt_min             =   3.0000000000000E+01
(PID.TID 0000.0001) %MON dynstat_salt_mean            =   3.0000000000000E+01
(PID.TID 0000.0001) %MON dynstat_salt_sd              =   0.0000000000000E+00
(PID.TID 0000.0001) %MON dynstat_salt_del2            =   0.0000000000000E+00
(PID.TID 0000.0001) %MON trAdv_CFL_u_max              =   1.8684073363415E-03
(PID.TID 0000.0001) %MON trAdv_CFL_v_max              =   4.9943724490180E-03
(PID.TID 0000.0001) %MON trAdv_CFL_w_max              =   1.2302460565232E-09
(PID.TID 0000.0001) %MON advcfl_uvel_max              =   1.8684263540038E-03
(PID.TID 0000.0001) %MON advcfl_vvel_max              =   4.9944540001020E-03
(PID.TID 0000.0001) %MON advcfl_wvel_max              =   4.8656626733020E-09
(PID.TID 0000.0001) %MON advcfl_W_hf_max              =   0.0000000000000E+00
(PID.TID 0000.0001) %MON pe_b_mean                    =   3.2281116066645E-07
(PID.TID 0000.0001) %MON ke_max                       =   3.4623346271421E-03
(PID.TID 0000.0001) %MON ke_mean                      =   1.3022971281387E-04
(PID.TID 0000.0001) %MON ke_vol                       =   7.2000000000000E+15
(PID.TID 0000.0001) %MON vort_r_min                   =  -1.4740509498930E-06
(PID.TID 0000.0001) %MON vort_r_max                   =   2.2987000510600E-06
(PID.TID 0000.0001) %MON vort_a_mean                  =   1.0600000000000E-04
(PID.TID 0000.0001) %MON vort_a_sd                    =   3.5367014198680E-06
(PID.TID 0000.0001) %MON vort_p_mean                  =   1.1130000000000E-04
(PID.TID 0000.0001) %MON vort_p_sd                    =   4.1150954090423E-05
(PID.TID 0000.0001) %MON surfExpan_theta_mean         =   2.6346924641985E-20
(PID.TID 0000.0001) %MON surfExpan_salt_mean          =   3.9520386962977E-20
(PID.TID 0000.0001) // =======================================================
(PID.TID 0000.0001) // End MONITOR dynamic field statistics
(PID.TID 0000.0001) // =======================================================
 cg2d: Sum(rhs),rhsMax =  -4.63673794553676E-05  1.38946550782701E-01
 cg2d: Sum(rhs),rhsMax =  -4.68346706214385E-05  1.38948230662129E-01
 cg2d: Sum(rhs),rhsMax =  -4.73006248816535E-05  1.38949907235457E-01
 cg2d: Sum(rhs),rhsMax =  -4.77652436210070E-05  1.38951580494600E-01
 cg2d: Sum(rhs),rhsMax =  -4.82285279619615E-05  1.38953250431488E-01
 cg2d: Sum(rhs),rhsMax =  -4.86904795841594E-05  1.38954917038061E-01
 cg2d: Sum(rhs),rhsMax =  -4.91510997172586E-05  1.38956580306272E-01
 cg2d: Sum(rhs),rhsMax =  -4.96103898437348E-05  1.38958240228088E-01
 cg2d: Sum(rhs),rhsMax =  -5.00683513631195E-05  1.38959896795485E-01
 cg2d: Sum(rhs),rhsMax =  -5.05249860081993E-05  1.38961550000458E-01
 cg2d: Sum(rhs),rhsMax =  -5.09802950280445E-05  1.38963199835008E-01
 cg2d: Sum(rhs),rhsMax =  -5.14342802751420E-05  1.38964846291153E-01
 cg2d: Sum(rhs),rhsMax =  -5.18869431916872E-05  1.38966489360920E-01
 cg2d: Sum(rhs),rhsMax =  -5.23382854161689E-05  1.38968129036354E-01
 cg2d: Sum(rhs),rhsMax =  -5.27883087120045E-05  1.38969765309507E-01
 cg2d: Sum(rhs),rhsMax =  -5.32370147460822E-05  1.38971398172448E-01
 cg2d: Sum(rhs),rhsMax =  -5.36844053177221E-05  1.38973027617256E-01
 cg2d: Sum(rhs),rhsMax =  -5.41304822242036E-05  1.38974653636024E-01
 cg2d: Sum(rhs),rhsMax =  -5.45752471956245E-05  1.38976276220859E-01
 cg2d: Sum(rhs),rhsMax =  -5.50187021996374E-05  1.38977895363877E-01
 cg2d: Sum(rhs),rhsMax =  -5.54608490144640E-05  1.38979511057210E-01
 cg2d: Sum(rhs),rhsMax =  -5.59016896347405E-05  1.38981123293005E-01
 cg2d: Sum(rhs),rhsMax =  -5.63412260053530E-05  1.38982732063416E-01
 cg2d: Sum(rhs),rhsMax =  -5.67794600834304E-05  1.38984337360615E-01
 cg2d: Sum(rhs),rhsMax =  -5.72163938782465E-05  1.38985939176783E-01
 cg2d: Sum(rhs),rhsMax =  -5.76520294973759E-05  1.38987537504116E-01
 cg2d: Sum(rhs),rhsMax =  -5.80863688942257E-05  1.38989132334825E-01
 cg2d: Sum(rhs),rhsMax =  -5.85194142909487E-05  1.38990723661131E-01
 cg2d: Sum(rhs),rhsMax =  -5.89511678646135E-05  1.38992311475268E-01
 cg2d: Sum(rhs),rhsMax =  -5.93816317940882E-05  1.38993895769486E-01
 cg2d: Sum(rhs),rhsMax =  -5.98108081052229E-05  1.38995476536043E-01
 cg2d: Sum(rhs),rhsMax =  -6.02386992755817E-05  1.38997053767214E-01
 cg2d: Sum(rhs),rhsMax =  -6.06653074518466E-05  1.38998627455288E-01
 cg2d: Sum(rhs),rhsMax =  -6.10906349907811E-05  1.39000197592564E-01
 cg2d: Sum(rhs),rhsMax =  -6.15146840807282E-05  1.39001764171356E-01
 cg2d: Sum(rhs),rhsMax =  -6.19374572578884E-05  1.39003327183989E-01
 cg2d: Sum(rhs),rhsMax =  -6.23589568986135E-05  1.39004886622804E-01
 cg2d: Sum(rhs),rhsMax =  -6.27791854171666E-05  1.39006442480155E-01
 cg2d: Sum(rhs),rhsMax =  -6.31981451504329E-05  1.39007994748406E-01
 cg2d: Sum(rhs),rhsMax =  -6.36158386874480E-05  1.39009543419939E-01
 cg2d: Sum(rhs),rhsMax =  -6.40322685876429E-05  1.39011088487144E-01
 cg2d: Sum(rhs),rhsMax =  -6.44474372819273E-05  1.39012629942429E-01
 cg2d: Sum(rhs),rhsMax =  -6.48613474469994E-05  1.39014167778212E-01
 cg2d: Sum(rhs),rhsMax =  -6.52740016321620E-05  1.39015701986926E-01
 cg2d: Sum(rhs),rhsMax =  -6.56854025670884E-05  1.39017232561018E-01
 cg2d: Sum(rhs),rhsMax =  -6.60955528741201E-05  1.39018759492946E-01
 cg2d: Sum(rhs),rhsMax =  -6.65044552515780E-05  1.39020282775184E-01
 cg2d: Sum(rhs),rhsMax =  -6.69121122583724E-05  1.39021802400217E-01
 cg2d: Sum(rhs),rhsMax =  -6.73185268704338E-05  1.39023318360545E-01
 cg2d: Sum(rhs),rhsMax =  -6.77237017525350E-05  1.39024830648682E-01
 cg2d: Sum(rhs),rhsMax =  -6.81276397949890E-05  1.39026339257153E-01
 cg2d: Sum(rhs),rhsMax =  -6.85303438712100E-05  1.39027844178499E-01
 cg2d: Sum(rhs),rhsMax =  -6.89318167141073E-05  1.39029345405272E-01
 cg2d: Sum(rhs),rhsMax =  -6.93320612837420E-05  1.39030842930041E-01
 cg2d: Sum(rhs),rhsMax =  -6.97310805822761E-05  1.39032336745385E-01
 cg2d: Sum(rhs),rhsMax =  -7.01288774770728E-05  1.39033826843900E-01
 cg2d: Sum(rhs),rhsMax =  -7.05254549621323E-05  1.39035313218192E-01
 cg2d: Sum(rhs),rhsMax =  -7.09208161264203E-05  1.39036795860882E-01
 cg2d: Sum(rhs),rhsMax =  -7.13149640200420E-05  1.39038274764606E-01
 cg2d: Sum(rhs),rhsMax =  -7.17079015761062E-05  1.39039749922013E-01
 cg2d: Sum(rhs),rhsMax =  -7.20996319437950E-05  1.39041221325764E-01
 cg2d: Sum(rhs),rhsMax =  -7.24901583694475E-05  1.39042688968536E-01
 cg2d: Sum(rhs),rhsMax =  -7.28794838822707E-05  1.39044152843019E-01
 cg2d: Sum(rhs),rhsMax =  -7.32676117328884E-05  1.39045612941914E-01
 cg2d: Sum(rhs),rhsMax =  -7.36545451849868E-05  1.39047069257941E-01
 cg2d: Sum(rhs),rhsMax =  -7.40402873171415E-05  1.39048521783829E-01
 cg2d: Sum(rhs),rhsMax =  -7.44248415271544E-05  1.39049970512324E-01
 cg2d: Sum(rhs),rhsMax =  -7.48082110719785E-05  1.39051415436183E-01
 cg2d: Sum(rhs),rhsMax =  -7.51903992675098E-05  1.39052856548180E-01
 cg2d: Sum(rhs),rhsMax =  -7.55714094683151E-05  1.39054293841099E-01
 cg2d: Sum(rhs),rhsMax =  -7.59512450770857E-05  1.39055727307742E-01
 cg2d: Sum(rhs),rhsMax =  -7.63299094943166E-05  1.39057156940922E-01
(PID.TID 0000.0001)      cg2d_init_res =   5.63599620103883E-04
(PID.TID 0000.0001)      cg2d_iters(min,last) =      -1      72
(PID.TID 0000.0001)      cg2d_last_res =   9.70524604715075E-08
(PID.TID 0000.0001) // =======================================================
(PID.TID 0000.0001) // Begin MONITOR dynamic field statistics
(PID.TID 0000.0001) // =======================================================
(PID.TID 0000.0001) %MON time_tsnumber                =                 17424
(PID.TID 0000.0001) %MON time_secondsf                =   2.0908800000000E+07
(PID.TID 0000.0001) %MON dynstat_eta_max              =   4.6734458521022E-02
(PID.TID 0000.0001) %MON dynstat_eta_min              =  -2.1575529968636E-02
(PID.TID 0000.0001) %MON dynstat_eta_mean             =   5.3334115950059E-08
(PID.TID 0000.0001) %MON dynstat_eta_sd               =   1.8167575252636E-02
(PID.TID 0000.0001) %MON dynstat_eta_del2             =   1.7753153700168E-05
(PID.TID 0000.0001) %MON dynstat_uvel_max             =   3.1161853093321E-02
(PID.TID 0000.0001) %MON dynstat_uvel_min             =  -1.6040011693320E-02
(PID.TID 0000.0001) %MON dynstat_uvel_mean            =  -7.1977246457840E-08
(PID.TID 0000.0001) %MON dynstat_uvel_sd              =   6.8712194462364E-03
(PID.TID 0000.0001) %MON dynstat_uvel_del2            =   8.0303903318905E-06
(PID.TID 0000.0001) %MON dynstat_vvel_max             =   8.3334566711532E-02
(PID.TID 0000.0001) %MON dynstat_vvel_min             =  -3.0899338385310E-02
(PID.TID 0000.0001) %MON dynstat_vvel_mean            =   1.4051366747673E-08
(PID.TID 0000.0001) %MON dynstat_vvel_sd              =   1.4759898115000E-02
(PID.TID 0000.0001) %MON dynstat_vvel_del2            =   7.4336462751219E-05
(PID.TID 0000.0001) %MON dynstat_wvel_max             =   4.7226348723052E-09
(PID.TID 0000.0001) %MON dynstat_wvel_min             =  -1.0157335104304E-08
(PID.TID 0000.0001) %MON dynstat_wvel_mean            =   2.6218332196651E-23
(PID.TID 0000.0001) %MON dynstat_wvel_sd              =   3.5426218724316E-09
(PID.TID 0000.0001) %MON dynstat_wvel_del2            =   1.1932051827894E-12
(PID.TID 0000.0001) %MON dynstat_theta_max            =   2.0000000000000E+01
(PID.TID 0000.0001) %MON dynstat_theta_min            =   2.0000000000000E+01
(PID.TID 0000.0001) %MON dynstat_theta_mean           =   2.0000000000000E+01
(PID.TID 0000.0001) %MON dynstat_theta_sd             =   0.0000000000000E+00
(PID.TID 0000.0001) %MON dynstat_theta_del2           =   0.0000000000000E+00
(PID.TID 0000.0001) %MON dynstat_salt_max             =   3.0000000000000E+01
(PID.TID 0000.0001) %MON dynstat_salt_min             =   3.0000000000000E+01
(PID.TID 0000.0001) %MON dynstat_salt_mean            =   3.0000000000000E+01
(PID.TID 0000.0001) %MON dynstat_salt_sd              =   0.0000000000000E+00
(PID.TID 0000.0001) %MON dynstat_salt_del2            =   0.0000000000000E+00
(PID.TID 0000.0001) %MON trAdv_CFL_u_max              =   1.8696945643134E-03
(PID.TID 0000.0001) %MON trAdv_CFL_v_max              =   4.9999996203605E-03
(PID.TID 0000.0001) %MON trAdv_CFL_w_max              =   1.1347306236508E-09
(PID.TID 0000.0001) %MON advcfl_uvel_max              =   1.8697111855993E-03
(PID.TID 0000.0001) %MON advcfl_vvel_max              =   5.0000740026919E-03
(PID.TID 0000.0001) %MON advcfl_wvel_max              =   4.8755208500661E-09
(PID.TID 0000.0001) %MON advcfl_W_hf_max              =   0.0000000000000E+00
(PID.TID 0000.0001) %MON pe_b_mean                    =   3.2378963554233E-07
(PID.TID 0000.0001) %MON ke_max                       =   3.4694828047584E-03
(PID.TID 0000.0001) %MON ke_mean                      =   1.3032522244904E-04
(PID.TID 0000.0001) %MON ke_vol                       =   7.2000000000000E+15
(PID.TID 0000.0001) %MON vort_r_min                   =  -1.4728973033383E-06
(PID.TID 0000.0001) %MON vort_r_max                   =   2.3011506152280E-06
(PID.TID 0000.0001) %MON vort_a_mean                  =   1.0600000000000E-04
(PID.TID 0000.0001) %MON vort_a_sd                    =   3.5367266872885E-06
(PID.TID 0000.0001) %MON vort_p_mean                  =   1.1130000000000E-04
(PID.TID 0000.0001) %MON vort_p_sd                    =   4.1150912413487E-05
(PID.TID 0000.0001) %MON surfExpan_theta_mean         =   5.1570106210066E-22
(PID.TID 0000.0001) %MON surfExpan_salt_mean          =   7.7291753244582E-22
(PID.TID 0000.0001) // =======================================================
(PID.TID 0000.0001) // End MONITOR dynamic field statistics
(PID.TID 0000.0001) // =======================================================
 cg2d: Sum(rhs),rhsMax =  -7.67074062120211E-05  1.39058582733468E-01
 cg2d: Sum(rhs),rhsMax =  -7.70837385303813E-05  1.39060004678219E-01
 cg2d: Sum(rhs),rhsMax =  -7.74589100929896E-05  1.39061422768033E-01
 cg2d: Sum(rhs),rhsMax =  -7.78329243457856E-05  1.39062836995779E-01
 cg2d: Sum(rhs),rhsMax =  -7.82057848890058E-05  1.39064247354340E-01
 cg2d: Sum(rhs),rhsMax =  -7.85774952167390E-05  1.39065653836614E-01
 cg2d: Sum(rhs),rhsMax =  -7.89480589701262E-05  1.39067056435512E-01
 cg2d: Sum(rhs),rhsMax =  -7.93174797715304E-05  1.39068455143960E-01
 cg2d: Sum(rhs),rhsMax =  -7.96857611611917E-05  1.39069849954900E-01
 cg2d: Sum(rhs),rhsMax =  -8.00529069824932E-05  1.39071240861281E-01
 cg2d: Sum(rhs),rhsMax =  -8.04189208250781E-05  1.39072627856074E-01
 cg2d: Sum(rhs),rhsMax =  -8.07838066586210E-05  1.39074010932261E-01
 cg2d: Sum(rhs),rhsMax =  -8.11475679039159E-05  1.39075390082837E-01
 cg2d: Sum(rhs),rhsMax =  -8.15102085303700E-05  1.39076765300813E-01
 cg2d: Sum(rhs),rhsMax =  -8.18717323812206E-05  1.39078136579212E-01
 cg2d: Sum(rhs),rhsMax =  -8.22321432456981E-05  1.39079503911073E-01
 cg2d: Sum(rhs),rhsMax =  -8.25914450253602E-05  1.39080867289450E-01
 cg2d: Sum(rhs),rhsMax =  -8.29496415166303E-05  1.39082226707409E-01
 cg2d: Sum(rhs),rhsMax =  -8.33067366899738E-05  1.39083582158032E-01
 cg2d: Sum(rhs),rhsMax =  -8.36627346121662E-05  1.39084933634413E-01
 cg2d: Sum(rhs),rhsMax =  -8.40176390842157E-05  1.39086281129662E-01
 cg2d: Sum(rhs),rhsMax =  -8.43714541839827E-05  1.39087624636904E-01
 cg2d: Sum(rhs),rhsMax =  -8.47241838166498E-05  1.39088964149277E-01
 cg2d: Sum(rhs),rhsMax =  -8.50758322826651E-05  1.39090299659934E-01
 cg2d: Sum(rhs),rhsMax =  -8.54264034312472E-05  1.39091631162040E-01
 cg2d: Sum(rhs),rhsMax =  -8.57759015301046E-05  1.39092958648780E-01
 cg2d: Sum(rhs),rhsMax =  -8.61243306049982E-05  1.39094282113346E-01
 cg2d: Sum(rhs),rhsMax =  -8.64716948277885E-05  1.39095601548951E-01
 cg2d: Sum(rhs),rhsMax =  -8.68179984327084E-05  1.39096916948818E-01
 cg2d: Sum(rhs),rhsMax =  -8.71632456692448E-05  1.39098228306185E-01
 cg2d: Sum(rhs),rhsMax =  -8.75074405883147E-05  1.39099535614309E-01
 cg2d: Sum(rhs),rhsMax =  -8.78505877106696E-05  1.39100838866455E-01
 cg2d: Sum(rhs),rhsMax =  -8.81926911720466E-05  1.39102138055906E-01
 cg2d: Sum(rhs),rhsMax =  -8.85337552619441E-05  1.39103433175960E-01
 cg2d: Sum(rhs),rhsMax =  -8.88737844395053E-05  1.39104724219927E-01
 cg2d: Sum(rhs),rhsMax =  -8.92127830672690E-05  1.39106011181134E-01
 cg2d: Sum(rhs),rhsMax =  -8.95507553673432E-05  1.39107294052921E-01
 cg2d: Sum(rhs),rhsMax =  -8.98877059633896E-05  1.39108572828644E-01
 cg2d: Sum(rhs),rhsMax =  -9.02236391316759E-05  1.39109847501672E-01
 cg2d: Sum(rhs),rhsMax =  -9.05585595485144E-05  1.39111118065390E-01
 cg2d: Sum(rhs),rhsMax =  -9.08924714968602E-05  1.39112384513196E-01
 cg2d: Sum(rhs),rhsMax =  -9.12253796276742E-05  1.39113646838505E-01
 cg2d: Sum(rhs),rhsMax =  -9.15572884560472E-05  1.39114905034745E-01
 cg2d: Sum(rhs),rhsMax =  -9.18882026894703E-05  1.39116159095358E-01
 cg2d: Sum(rhs),rhsMax =  -9.22181267145657E-05  1.39117409013803E-01
 cg2d: Sum(rhs),rhsMax =  -9.25470653334341E-05  1.39118654783550E-01
 cg2d: Sum(rhs),rhsMax =  -9.28750231353036E-05  1.39119896398090E-01
 cg2d: Sum(rhs),rhsMax =  -9.32020047354461E-05  1.39121133850923E-01
 cg2d: Sum(rhs),rhsMax =  -9.35280149143743E-05  1.39122367135564E-01
 cg2d: Sum(rhs),rhsMax =  -9.38530584305725E-05  1.39123596245548E-01
 cg2d: Sum(rhs),rhsMax =  -9.41771399747219E-05  1.39124821174420E-01
 cg2d: Sum(rhs),rhsMax =  -9.45002643734762E-05  1.39126041915738E-01
 cg2d: Sum(rhs),rhsMax =  -9.48224363845705E-05  1.39127258463082E-01
 cg2d: Sum(rhs),rhsMax =  -9.51436609487781E-05  1.39128470810042E-01
 cg2d: Sum(rhs),rhsMax =  -9.54639428232228E-05  1.39129678950222E-01
 cg2d: Sum(rhs),rhsMax =  -9.57832869147943E-05  1.39130882877245E-01
 cg2d: Sum(rhs),rhsMax =  -9.61016981825607E-05  1.39132082584744E-01
 cg2d: Sum(rhs),rhsMax =  -9.64191815968837E-05  1.39133278066371E-01
 cg2d: Sum(rhs),rhsMax =  -9.67357420010532E-05  1.39134469315791E-01
 cg2d: Sum(rhs),rhsMax =  -9.70513844474842E-05  1.39135656326685E-01
 cg2d: Sum(rhs),rhsMax =  -9.73661139710529E-05  1.39136839092747E-01
 cg2d: Sum(rhs),rhsMax =  -9.76799355502421E-05  1.39138017607688E-01
 cg2d: Sum(rhs),rhsMax =  -9.79928543251036E-05  1.39139191865233E-01
 cg2d: Sum(rhs),rhsMax =  -9.83048753908401E-05  1.39140361859123E-01
 cg2d: Sum(rhs),rhsMax =  -9.86160037750577E-05  1.39141527583113E-01
 cg2d: Sum(rhs),rhsMax =  -9.89262447641213E-05  1.39142689030973E-01
 cg2d: Sum(rhs),rhsMax =  -9.92356033218530E-05  1.39143846196489E-01
 cg2d: Sum(rhs),rhsMax =  -9.95440847522044E-05  1.39144999073461E-01
 cg2d: Sum(rhs),rhsMax =  -9.98516943781823E-05  1.39146147655706E-01
 cg2d: Sum(rhs),rhsMax =  -1.00158437272567E-04  1.39147291937055E-01
 cg2d: Sum(rhs),rhsMax =  -1.00464318730535E-04  1.39148431911351E-01
 cg2d: Sum(rhs),rhsMax =  -1.00769344006759E-04  1.39149567572458E-01
(PID.TID 0000.0001)      cg2d_init_res =   5.62044728319971E-04
(PID.TID 0000.0001)      cg2d_iters(min,last) =      -1      72
(PID.TID 0000.0001)      cg2d_last_res =   9.43028400630433E-08
(PID.TID 0000.0001) // =======================================================
(PID.TID 0000.0001) // Begin MONITOR dynamic field statistics
(PID.TID 0000.0001) // =======================================================
(PID.TID 0000.0001) %MON time_tsnumber                =                 17496
(PID.TID 0000.0001) %MON time_secondsf                =   2.0995200000000E+07
(PID.TID 0000.0001) %MON dynstat_eta_max              =   4.7025444152099E-02
(PID.TID 0000.0001) %MON dynstat_eta_min              =  -2.1398442542167E-02
(PID.TID 0000.0001) %MON dynstat_eta_mean             =   7.0322253783207E-08
(PID.TID 0000.0001) %MON dynstat_eta_sd               =   1.8175742692682E-02
(PID.TID 0000.0001) %MON dynstat_eta_del2             =   1.7757416601700E-05
(PID.TID 0000.0001) %MON dynstat_uvel_max             =   3.1180093450359E-02
(PID.TID 0000.0001) %MON dynstat_uvel_min             =  -1.6057646540194E-02
(PID.TID 0000.0001) %MON dynstat_uvel_mean            =  -5.7029837265165E-08
(PID.TID 0000.0001) %MON dynstat_uvel_sd              =   6.8436689454341E-03
(PID.TID 0000.0001) %MON dynstat_uvel_del2            =   8.0124281531249E-06
(PID.TID 0000.0001) %MON dynstat_vvel_max             =   8.3418650554113E-02
(PID.TID 0000.0001) %MON dynstat_vvel_min             =  -3.0893139209288E-02
(PID.TID 0000.0001) %MON dynstat_vvel_mean            =   1.4305365735385E-08
(PID.TID 0000.0001) %MON dynstat_vvel_sd              =   1.4774905682697E-02
(PID.TID 0000.0001) %MON dynstat_vvel_del2            =   7.4402162525830E-05
(PID.TID 0000.0001) %MON dynstat_wvel_max             =   4.3342518783174E-09
(PID.TID 0000.0001) %MON dynstat_wvel_min             =  -1.0128101073788E-08
(PID.TID 0000.0001) %MON dynstat_wvel_mean            =   7.5609023042489E-22
(PID.TID 0000.0001) %MON dynstat_wvel_sd              =   3.5245750603676E-09
(PID.TID 0000.0001) %MON dynstat_wvel_del2            =   1.1873165135014E-12
(PID.TID 0000.0001) %MON dynstat_theta_max            =   2.0000000000000E+01
(PID.TID 0000.0001) %MON dynstat_theta_min            =   2.0000000000000E+01
(PID.TID 0000.0001) %MON dynstat_theta_mean           =   2.0000000000000E+01
(PID.TID 0000.0001) %MON dynstat_theta_sd             =   0.0000000000000E+00
(PID.TID 0000.0001) %MON dynstat_theta_del2           =   0.0000000000000E+00
(PID.TID 0000.0001) %MON dynstat_salt_max             =   3.0000000000000E+01
(PID.TID 0000.0001) %MON dynstat_salt_min             =   3.0000000000000E+01
(PID.TID 0000.0001) %MON dynstat_salt_mean            =   3.0000000000000E+01
(PID.TID 0000.0001) %MON dynstat_salt_sd              =   0.0000000000000E+00
(PID.TID 0000.0001) %MON dynstat_salt_del2            =   0.0000000000000E+00
(PID.TID 0000.0001) %MON trAdv_CFL_u_max              =   1.8707918641046E-03
(PID.TID 0000.0001) %MON trAdv_CFL_v_max              =   5.0050534046729E-03
(PID.TID 0000.0001) %MON trAdv_CFL_w_max              =   1.0414989064448E-09
(PID.TID 0000.0001) %MON advcfl_uvel_max              =   1.8708056070215E-03
(PID.TID 0000.0001) %MON advcfl_vvel_max              =   5.0051190332468E-03
(PID.TID 0000.0001) %MON advcfl_wvel_max              =   4.8614885154180E-09
(PID.TID 0000.0001) %MON advcfl_W_hf_max              =   0.0000000000000E+00
(PID.TID 0000.0001) %MON pe_b_mean                    =   3.2408082760927E-07
(PID.TID 0000.0001) %MON ke_max                       =   3.4764116022848E-03
(PID.TID 0000.0001) %MON ke_mean                      =   1.3035737426395E-04
(PID.TID 0000.0001) %MON ke_vol                       =   7.2000000000000E+15
(PID.TID 0000.0001) %MON vort_r_min                   =  -1.4718379648110E-06
(PID.TID 0000.0001) %MON vort_r_max                   =   2.3031628571996E-06
(PID.TID 0000.0001) %MON vort_a_mean                  =   1.0600000000000E-04
(PID.TID 0000.0001) %MON vort_a_sd                    =   3.5367491823490E-06
(PID.TID 0000.0001) %MON vort_p_mean                  =   1.1130000000000E-04
(PID.TID 0000.0001) %MON vort_p_sd                    =   4.1150869847555E-05
(PID.TID 0000.0001) %MON surfExpan_theta_mean         =   1.5106454359031E-20
(PID.TID 0000.0001) %MON surfExpan_salt_mean          =   2.2660944725633E-20
(PID.TID 0000.0001) // =======================================================
(PID.TID 0000.0001) // End MONITOR dynamic field statistics
(PID.TID 0000.0001) // =======================================================
 cg2d: Sum(rhs),rhsMax =  -1.01073518639708E-04  1.39150698914252E-01
 cg2d: Sum(rhs),rhsMax =  -1.01376847702577E-04  1.39151825930622E-01
 cg2d: Sum(rhs),rhsMax =  -1.01679336721567E-04  1.39152948615478E-01
 cg2d: Sum(rhs),rhsMax =  -1.01980990936549E-04  1.39154066962741E-01
 cg2d: Sum(rhs),rhsMax =  -1.02281815900614E-04  1.39155180966345E-01
 cg2d: Sum(rhs),rhsMax =  -1.02581817012648E-04  1.39156290620248E-01
 cg2d: Sum(rhs),rhsMax =  -1.02880999750744E-04  1.39157395918414E-01
 cg2d: Sum(rhs),rhsMax =  -1.03179369515104E-04  1.39158496854827E-01
 cg2d: Sum(rhs),rhsMax =  -1.03476931912816E-04  1.39159593423484E-01
 cg2d: Sum(rhs),rhsMax =  -1.03773692551129E-04  1.39160685618400E-01
 cg2d: Sum(rhs),rhsMax =  -1.04069656845673E-04  1.39161773433603E-01
 cg2d: Sum(rhs),rhsMax =  -1.04364830399386E-04  1.39162856863139E-01
 cg2d: Sum(rhs),rhsMax =  -1.04659218871411E-04  1.39163935901065E-01
 cg2d: Sum(rhs),rhsMax =  -1.04952827870416E-04  1.39165010541459E-01
 cg2d: Sum(rhs),rhsMax =  -1.05245663011960E-04  1.39166080778408E-01
 cg2d: Sum(rhs),rhsMax =  -1.05537730017405E-04  1.39167146606021E-01
 cg2d: Sum(rhs),rhsMax =  -1.05829034521363E-04  1.39168208018416E-01
 cg2d: Sum(rhs),rhsMax =  -1.06119582430308E-04  1.39169265009733E-01
 cg2d: Sum(rhs),rhsMax =  -1.06409379360992E-04  1.39170317574121E-01
 cg2d: Sum(rhs),rhsMax =  -1.06698431147139E-04  1.39171365705751E-01
 cg2d: Sum(rhs),rhsMax =  -1.06986743524384E-04  1.39172409398802E-01
 cg2d: Sum(rhs),rhsMax =  -1.07274322325113E-04  1.39173448647477E-01
 cg2d: Sum(rhs),rhsMax =  -1.07561173407768E-04  1.39174483445988E-01
 cg2d: Sum(rhs),rhsMax =  -1.07847302552671E-04  1.39175513788564E-01
 cg2d: Sum(rhs),rhsMax =  -1.08132715814187E-04  1.39176539669451E-01
 cg2d: Sum(rhs),rhsMax =  -1.08417418943325E-04  1.39177561082910E-01
 cg2d: Sum(rhs),rhsMax =  -1.08701417891871E-04  1.39178578023215E-01
 cg2d: Sum(rhs),rhsMax =  -1.08984718713634E-04  1.39179590484662E-01
 cg2d: Sum(rhs),rhsMax =  -1.09267327452361E-04  1.39180598461556E-01
 cg2d: Sum(rhs),rhsMax =  -1.09549249880376E-04  1.39181601948220E-01
 cg2d: Sum(rhs),rhsMax =  -1.09830492140140E-04  1.39182600938994E-01
 cg2d: Sum(rhs),rhsMax =  -1.10111060296395E-04  1.39183595428231E-01
 cg2d: Sum(rhs),rhsMax =  -1.10390960276033E-04  1.39184585410303E-01
 cg2d: Sum(rhs),rhsMax =  -1.10670198422628E-04  1.39185570879594E-01
 cg2d: Sum(rhs),rhsMax =  -1.10948780582879E-04  1.39186551830506E-01
 cg2d: Sum(rhs),rhsMax =  -1.11226713014828E-04  1.39187528257458E-01
 cg2d: Sum(rhs),rhsMax =  -1.11504001874391E-04  1.39188500154880E-01
 cg2d: Sum(rhs),rhsMax =  -1.11780653211838E-04  1.39189467517224E-01
 cg2d: Sum(rhs),rhsMax =  -1.12056673422650E-04  1.39190430338950E-01
 cg2d: Sum(rhs),rhsMax =  -1.12332068556556E-04  1.39191388614543E-01
 cg2d: Sum(rhs),rhsMax =  -1.12606844934213E-04  1.39192342338496E-01
 cg2d: Sum(rhs),rhsMax =  -1.12881008763047E-04  1.39193291505322E-01
 cg2d: Sum(rhs),rhsMax =  -1.13154566288458E-04  1.39194236109548E-01
 cg2d: Sum(rhs),rhsMax =  -1.13427523894312E-04  1.39195176145718E-01
 cg2d: Sum(rhs),rhsMax =  -1.13699887796180E-04  1.39196111608390E-01
 cg2d: Sum(rhs),rhsMax =  -1.13971664402883E-04  1.39197042492141E-01
 cg2d: Sum(rhs),rhsMax =  -1.14242859950737E-04  1.39197968791561E-01
 cg2d: Sum(rhs),rhsMax =  -1.14513480955401E-04  1.39198890501258E-01
 cg2d: Sum(rhs),rhsMax =  -1.14783533633447E-04  1.39199807615853E-01
 cg2d: Sum(rhs),rhsMax =  -1.15053024546000E-04  1.39200720129985E-01
 cg2d: Sum(rhs),rhsMax =  -1.15321960112104E-04  1.39201628038310E-01
 cg2d: Sum(rhs),rhsMax =  -1.15590346579383E-04  1.39202531335498E-01
 cg2d: Sum(rhs),rhsMax =  -1.15858190599152E-04  1.39203430016235E-01
 cg2d: Sum(rhs),rhsMax =  -1.16125498638915E-04  1.39204324075224E-01
 cg2d: Sum(rhs),rhsMax =  -1.16392277124415E-04  1.39205213507183E-01
 cg2d: Sum(rhs),rhsMax =  -1.16658532626231E-04  1.39206098306847E-01
 cg2d: Sum(rhs),rhsMax =  -1.16924271705184E-04  1.39206978468967E-01
 cg2d: Sum(rhs),rhsMax =  -1.17189500772273E-04  1.39207853988309E-01
 cg2d: Sum(rhs),rhsMax =  -1.17454226434548E-04  1.39208724859655E-01
 cg2d: Sum(rhs),rhsMax =  -1.17718455383107E-04  1.39209591077804E-01
 cg2d: Sum(rhs),rhsMax =  -1.17982194141510E-04  1.39210452637571E-01
 cg2d: Sum(rhs),rhsMax =  -1.18245449352141E-04  1.39211309533786E-01
 cg2d: Sum(rhs),rhsMax =  -1.18508227524802E-04  1.39212161761297E-01
 cg2d: Sum(rhs),rhsMax =  -1.18770535280590E-04  1.39213009314967E-01
 cg2d: Sum(rhs),rhsMax =  -1.19032379542913E-04  1.39213852189673E-01
 cg2d: Sum(rhs),rhsMax =  -1.19293766639936E-04  1.39214690380313E-01
 cg2d: Sum(rhs),rhsMax =  -1.19554703514504E-04  1.39215523881796E-01
 cg2d: Sum(rhs),rhsMax =  -1.19815196760884E-04  1.39216352689051E-01
 cg2d: Sum(rhs),rhsMax =  -1.20075253104460E-04  1.39217176797021E-01
 cg2d: Sum(rhs),rhsMax =  -1.20334879284657E-04  1.39217996200666E-01
 cg2d: Sum(rhs),rhsMax =  -1.20594082061982E-04  1.39218810894963E-01
 cg2d: Sum(rhs),rhsMax =  -1.20852868046981E-04  1.39219620874902E-01
(PID.TID 0000.0001)      cg2d_init_res =   5.60739771266631E-04
(PID.TID 0000.0001)      cg2d_iters(min,last) =      -1      72
(PID.TID 0000.0001)      cg2d_last_res =   9.02344350613348E-08
(PID.TID 0000.0001) // =======================================================
(PID.TID 0000.0001) // Begin MONITOR dynamic field statistics
(PID.TID 0000.0001) // =======================================================
(PID.TID 0000.0001) %MON time_tsnumber                =                 17568
(PID.TID 0000.0001) %MON time_secondsf                =   2.1081600000000E+07
(PID.TID 0000.0001) %MON dynstat_eta_max              =   4.7311177353130E-02
(PID.TID 0000.0001) %MON dynstat_eta_min              =  -2.1211336541421E-02
(PID.TID 0000.0001) %MON dynstat_eta_mean             =   8.4305795113287E-08
(PID.TID 0000.0001) %MON dynstat_eta_sd               =   1.8164511716579E-02
(PID.TID 0000.0001) %MON dynstat_eta_del2             =   1.7762080094571E-05
(PID.TID 0000.0001) %MON dynstat_uvel_max             =   3.1194611586094E-02
(PID.TID 0000.0001) %MON dynstat_uvel_min             =  -1.6070260444785E-02
(PID.TID 0000.0001) %MON dynstat_uvel_mean            =  -4.1302478728933E-08
(PID.TID 0000.0001) %MON dynstat_uvel_sd              =   6.8114248937873E-03
(PID.TID 0000.0001) %MON dynstat_uvel_del2            =   7.9921025476447E-06
(PID.TID 0000.0001) %MON dynstat_vvel_max             =   8.3491352127413E-02
(PID.TID 0000.0001) %MON dynstat_vvel_min             =  -3.0897574126684E-02
(PID.TID 0000.0001) %MON dynstat_vvel_mean            =   1.4439405166032E-08
(PID.TID 0000.0001) %MON dynstat_vvel_sd              =   1.4787514058778E-02
(PID.TID 0000.0001) %MON dynstat_vvel_del2            =   7.4463618173295E-05
(PID.TID 0000.0001) %MON dynstat_wvel_max             =   3.9621877204627E-09
(PID.TID 0000.0001) %MON dynstat_wvel_min             =  -1.0079817779188E-08
(PID.TID 0000.0001) %MON dynstat_wvel_mean            =  -9.6777209061353E-22
(PID.TID 0000.0001) %MON dynstat_wvel_sd              =   3.5084488542261E-09
(PID.TID 0000.0001) %MON dynstat_wvel_del2            =   1.1812530128527E-12
(PID.TID 0000.0001) %MON dynstat_theta_max            =   2.0000000000000E+01
(PID.TID 0000.0001) %MON dynstat_theta_min            =   2.0000000000000E+01
(PID.TID 0000.0001) %MON dynstat_theta_mean           =   2.0000000000000E+01
(PID.TID 0000.0001) %MON dynstat_theta_sd             =   0.0000000000000E+00
(PID.TID 0000.0001) %MON dynstat_theta_del2           =   0.0000000000000E+00
(PID.TID 0000.0001) %MON dynstat_salt_max             =   3.0000000000000E+01
(PID.TID 0000.0001) %MON dynstat_salt_min             =   3.0000000000000E+01
(PID.TID 0000.0001) %MON dynstat_salt_mean            =   3.0000000000000E+01
(PID.TID 0000.0001) %MON dynstat_salt_sd              =   0.0000000000000E+00
(PID.TID 0000.0001) %MON dynstat_salt_del2            =   0.0000000000000E+00
(PID.TID 0000.0001) %MON trAdv_CFL_u_max              =   1.8716662626938E-03
(PID.TID 0000.0001) %MON trAdv_CFL_v_max              =   5.0094256657751E-03
(PID.TID 0000.0001) %MON trAdv_CFL_w_max              =   9.5217088409700E-10
(PID.TID 0000.0001) %MON advcfl_uvel_max              =   1.8716766951657E-03
(PID.TID 0000.0001) %MON advcfl_vvel_max              =   5.0094811276448E-03
(PID.TID 0000.0001) %MON advcfl_wvel_max              =   4.8383125340100E-09
(PID.TID 0000.0001) %MON advcfl_W_hf_max              =   0.0000000000000E+00
(PID.TID 0000.0001) %MON pe_b_mean                    =   3.2368044567658E-07
(PID.TID 0000.0001) %MON ke_max                       =   3.4831049950782E-03
(PID.TID 0000.0001) %MON ke_mean                      =   1.3032415655272E-04
(PID.TID 0000.0001) %MON ke_vol                       =   7.2000000000000E+15
(PID.TID 0000.0001) %MON vort_r_min                   =  -1.4708634689361E-06
(PID.TID 0000.0001) %MON vort_r_max                   =   2.3046976266134E-06
(PID.TID 0000.0001) %MON vort_a_mean                  =   1.0600000000000E-04
(PID.TID 0000.0001) %MON vort_a_sd                    =   3.5367683756710E-06
(PID.TID 0000.0001) %MON vort_p_mean                  =   1.1130000000000E-04
(PID.TID 0000.0001) %MON vort_p_sd                    =   4.1150827026585E-05
(PID.TID 0000.0001) %MON surfExpan_theta_mean         =  -1.9366239476268E-20
(PID.TID 0000.0001) %MON surfExpan_salt_mean          =  -2.9049989574364E-20
(PID.TID 0000.0001) // =======================================================
(PID.TID 0000.0001) // End MONITOR dynamic field statistics
(PID.TID 0000.0001) // =======================================================
 cg2d: Sum(rhs),rhsMax =  -1.21111244174778E-04  1.39220426135494E-01
 cg2d: Sum(rhs),rhsMax =  -1.21369217093164E-04  1.39221226671763E-01
 cg2d: Sum(rhs),rhsMax =  -1.21626793680314E-04  1.39222022478750E-01
 cg2d: Sum(rhs),rhsMax =  -1.21883980623971E-04  1.39222813551511E-01
 cg2d: Sum(rhs),rhsMax =  -1.22140784897610E-04  1.39223599885120E-01
 cg2d: Sum(rhs),rhsMax =  -1.22397213198116E-04  1.39224381474670E-01
 cg2d: Sum(rhs),rhsMax =  -1.22653272319835E-04  1.39225158315262E-01
 cg2d: Sum(rhs),rhsMax =  -1.22908969200414E-04  1.39225930402022E-01
 cg2d: Sum(rhs),rhsMax =  -1.23164310679541E-04  1.39226697730087E-01
 cg2d: Sum(rhs),rhsMax =  -1.23419303483050E-04  1.39227460294613E-01
 cg2d: Sum(rhs),rhsMax =  -1.23673954569796E-04  1.39228218090773E-01
 cg2d: Sum(rhs),rhsMax =  -1.23928270832042E-04  1.39228971113752E-01
 cg2d: Sum(rhs),rhsMax =  -1.24182259123883E-04  1.39229719358755E-01
 cg2d: Sum(rhs),rhsMax =  -1.24435926313703E-04  1.39230462821004E-01
 cg2d: Sum(rhs),rhsMax =  -1.24689279340320E-04  1.39231201495734E-01
 cg2d: Sum(rhs),rhsMax =  -1.24942325025708E-04  1.39231935378200E-01
 cg2d: Sum(rhs),rhsMax =  -1.25195070381828E-04  1.39232664463671E-01
 cg2d: Sum(rhs),rhsMax =  -1.25447522296234E-04  1.39233388747434E-01
 cg2d: Sum(rhs),rhsMax =  -1.25699687548282E-04  1.39234108224791E-01
 cg2d: Sum(rhs),rhsMax =  -1.25951573218509E-04  1.39234822891061E-01
 cg2d: Sum(rhs),rhsMax =  -1.26203186194880E-04  1.39235532741581E-01
 cg2d: Sum(rhs),rhsMax =  -1.26454533292373E-04  1.39236237771702E-01
 cg2d: Sum(rhs),rhsMax =  -1.26705621596952E-04  1.39236937976793E-01
 cg2d: Sum(rhs),rhsMax =  -1.26956457918818E-04  1.39237633352239E-01
 cg2d: Sum(rhs),rhsMax =  -1.27207049336080E-04  1.39238323893442E-01
 cg2d: Sum(rhs),rhsMax =  -1.27457402674949E-04  1.39239009595820E-01
 cg2d: Sum(rhs),rhsMax =  -1.27707524849178E-04  1.39239690454809E-01
 cg2d: Sum(rhs),rhsMax =  -1.27957422921330E-04  1.39240366465859E-01
 cg2d: Sum(rhs),rhsMax =  -1.28207103806082E-04  1.39241037624438E-01
 cg2d: Sum(rhs),rhsMax =  -1.28456574296486E-04  1.39241703926031E-01
 cg2d: Sum(rhs),rhsMax =  -1.28705841519905E-04  1.39242365366138E-01
 cg2d: Sum(rhs),rhsMax =  -1.28954912244586E-04  1.39243021940278E-01
 cg2d: Sum(rhs),rhsMax =  -1.29203793531095E-04  1.39243673643985E-01
 cg2d: Sum(rhs),rhsMax =  -1.29452492112552E-04  1.39244320472810E-01
 cg2d: Sum(rhs),rhsMax =  -1.29701015197996E-04  1.39244962422321E-01
 cg2d: Sum(rhs),rhsMax =  -1.29949369461107E-04  1.39245599488101E-01
 cg2d: Sum(rhs),rhsMax =  -1.30197561970930E-04  1.39246231665751E-01
 cg2d: Sum(rhs),rhsMax =  -1.30445599660267E-04  1.39246858950890E-01
 cg2d: Sum(rhs),rhsMax =  -1.30693489238288E-04  1.39247481339152E-01
 cg2d: Sum(rhs),rhsMax =  -1.30941237794431E-04  1.39248098826187E-01
 cg2d: Sum(rhs),rhsMax =  -1.31188852139657E-04  1.39248711407662E-01
 cg2d: Sum(rhs),rhsMax =  -1.31436339194423E-04  1.39249319079264E-01
 cg2d: Sum(rhs),rhsMax =  -1.31683705904802E-04  1.39249921836693E-01
 cg2d: Sum(rhs),rhsMax =  -1.31930958931569E-04  1.39250519675665E-01
 cg2d: Sum(rhs),rhsMax =  -1.32178105265169E-04  1.39251112591918E-01
 cg2d: Sum(rhs),rhsMax =  -1.32425151722210E-04  1.39251700581199E-01
 cg2d: Sum(rhs),rhsMax =  -1.32672105136624E-04  1.39252283639281E-01
 cg2d: Sum(rhs),rhsMax =  -1.32918972457658E-04  1.39252861761946E-01
 cg2d: Sum(rhs),rhsMax =  -1.33165760289189E-04  1.39253434944997E-01
 cg2d: Sum(rhs),rhsMax =  -1.33412475396799E-04  1.39254003184253E-01
 cg2d: Sum(rhs),rhsMax =  -1.33659124751288E-04  1.39254566475547E-01
 cg2d: Sum(rhs),rhsMax =  -1.33905715034265E-04  1.39255124814733E-01
 cg2d: Sum(rhs),rhsMax =  -1.34152253054021E-04  1.39255678197679E-01
 cg2d: Sum(rhs),rhsMax =  -1.34398745430041E-04  1.39256226620272E-01
 cg2d: Sum(rhs),rhsMax =  -1.34645198841214E-04  1.39256770078416E-01
 cg2d: Sum(rhs),rhsMax =  -1.34891620142135E-04  1.39257308568027E-01
 cg2d: Sum(rhs),rhsMax =  -1.35138015929497E-04  1.39257842085044E-01
 cg2d: Sum(rhs),rhsMax =  -1.35384392864256E-04  1.39258370625420E-01
 cg2d: Sum(rhs),rhsMax =  -1.35630757593079E-04  1.39258894185127E-01
 cg2d: Sum(rhs),rhsMax =  -1.35877116726077E-04  1.39259412760149E-01
 cg2d: Sum(rhs),rhsMax =  -1.36123476694551E-04  1.39259926346492E-01
 cg2d: Sum(rhs),rhsMax =  -1.36369844274400E-04  1.39260434940176E-01
 cg2d: Sum(rhs),rhsMax =  -1.36616225847983E-04  1.39260938537240E-01
 cg2d: Sum(rhs),rhsMax =  -1.36862628035769E-04  1.39261437133741E-01
 cg2d: Sum(rhs),rhsMax =  -1.37109057266386E-04  1.39261930725746E-01
 cg2d: Sum(rhs),rhsMax =  -1.37355520039206E-04  1.39262419309348E-01
 cg2d: Sum(rhs),rhsMax =  -1.37602022758579E-04  1.39262902880651E-01
 cg2d: Sum(rhs),rhsMax =  -1.37848571765273E-04  1.39263381435780E-01
 cg2d: Sum(rhs),rhsMax =  -1.38095173496967E-04  1.39263854970872E-01
 cg2d: Sum(rhs),rhsMax =  -1.38341834296916E-04  1.39264323482086E-01
 cg2d: Sum(rhs),rhsMax =  -1.38588560347942E-04  1.39264786965595E-01
 cg2d: Sum(rhs),rhsMax =  -1.38835358038462E-04  1.39265245417591E-01
(PID.TID 0000.0001)      cg2d_init_res =   5.59675079966234E-04
(PID.TID 0000.0001)      cg2d_iters(min,last) =      -1      72
(PID.TID 0000.0001)      cg2d_last_res =   8.58544163442381E-08
(PID.TID 0000.0001) // =======================================================
(PID.TID 0000.0001) // Begin MONITOR dynamic field statistics
(PID.TID 0000.0001) // =======================================================
(PID.TID 0000.0001) %MON time_tsnumber                =                 17640
(PID.TID 0000.0001) %MON time_secondsf                =   2.1168000000000E+07
(PID.TID 0000.0001) %MON dynstat_eta_max              =   4.7587319742975E-02
(PID.TID 0000.0001) %MON dynstat_eta_min              =  -2.1016913896438E-02
(PID.TID 0000.0001) %MON dynstat_eta_mean             =   9.6846922234520E-08
(PID.TID 0000.0001) %MON dynstat_eta_sd               =   1.8134005255354E-02
(PID.TID 0000.0001) %MON dynstat_eta_del2             =   1.7766958104365E-05
(PID.TID 0000.0001) %MON dynstat_uvel_max             =   3.1204922740890E-02
(PID.TID 0000.0001) %MON dynstat_uvel_min             =  -1.6077419670482E-02
(PID.TID 0000.0001) %MON dynstat_uvel_mean            =  -2.5013291387637E-08
(PID.TID 0000.0001) %MON dynstat_uvel_sd              =   6.7749220594922E-03
(PID.TID 0000.0001) %MON dynstat_uvel_del2            =   7.9696936791787E-06
(PID.TID 0000.0001) %MON dynstat_vvel_max             =   8.3551090519075E-02
(PID.TID 0000.0001) %MON dynstat_vvel_min             =  -3.0912399802664E-02
(PID.TID 0000.0001) %MON dynstat_vvel_mean            =   1.4448496364614E-08
(PID.TID 0000.0001) %MON dynstat_vvel_sd              =   1.4797430423734E-02
(PID.TID 0000.0001) %MON dynstat_vvel_del2            =   7.4519612057999E-05
(PID.TID 0000.0001) %MON dynstat_wvel_max             =   4.0695973946458E-09
(PID.TID 0000.0001) %MON dynstat_wvel_min             =  -1.0021673604497E-08
(PID.TID 0000.0001) %MON dynstat_wvel_mean            =  -2.3398898621154E-21
(PID.TID 0000.0001) %MON dynstat_wvel_sd              =   3.4945128257728E-09
(PID.TID 0000.0001) %MON dynstat_wvel_del2            =   1.1750789538548E-12
(PID.TID 0000.0001) %MON dynstat_theta_max            =   2.0000000000000E+01
(PID.TID 0000.0001) %MON dynstat_theta_min            =   2.0000000000000E+01
(PID.TID 0000.0001) %MON dynstat_theta_mean           =   2.0000000000000E+01
(PID.TID 0000.0001) %MON dynstat_theta_sd             =   0.0000000000000E+00
(PID.TID 0000.0001) %MON dynstat_theta_del2           =   0.0000000000000E+00
(PID.TID 0000.0001) %MON dynstat_salt_max             =   3.0000000000000E+01
(PID.TID 0000.0001) %MON dynstat_salt_min             =   3.0000000000000E+01
(PID.TID 0000.0001) %MON dynstat_salt_mean            =   3.0000000000000E+01
(PID.TID 0000.0001) %MON dynstat_salt_sd              =   0.0000000000000E+00
(PID.TID 0000.0001) %MON dynstat_salt_del2            =   0.0000000000000E+00
(PID.TID 0000.0001) %MON trAdv_CFL_u_max              =   1.8722886180443E-03
(PID.TID 0000.0001) %MON trAdv_CFL_v_max              =   5.0130213575546E-03
(PID.TID 0000.0001) %MON trAdv_CFL_w_max              =   9.7535982513218E-10
(PID.TID 0000.0001) %MON advcfl_uvel_max              =   1.8722953644534E-03
(PID.TID 0000.0001) %MON advcfl_vvel_max              =   5.0130654311445E-03
(PID.TID 0000.0001) %MON advcfl_wvel_max              =   4.8104033301584E-09
(PID.TID 0000.0001) %MON advcfl_W_hf_max              =   0.0000000000000E+00
(PID.TID 0000.0001) %MON pe_b_mean                    =   3.2259414582497E-07
(PID.TID 0000.0001) %MON ke_max                       =   3.4887044577174E-03
(PID.TID 0000.0001) %MON ke_mean                      =   1.3022456206199E-04
(PID.TID 0000.0001) %MON ke_vol                       =   7.2000000000000E+15
(PID.TID 0000.0001) %MON vort_r_min                   =  -1.4699632736960E-06
(PID.TID 0000.0001) %MON vort_r_max                   =   2.3057240792991E-06
(PID.TID 0000.0001) %MON vort_a_mean                  =   1.0600000000000E-04
(PID.TID 0000.0001) %MON vort_a_sd                    =   3.5367837918712E-06
(PID.TID 0000.0001) %MON vort_p_mean                  =   1.1130000000000E-04
(PID.TID 0000.0001) %MON vort_p_sd                    =   4.1150784615399E-05
(PID.TID 0000.0001) %MON surfExpan_theta_mean         =  -4.6797605297084E-20
(PID.TID 0000.0001) %MON surfExpan_salt_mean          =  -7.0192619617949E-20
(PID.TID 0000.0001) // =======================================================
(PID.TID 0000.0001) // End MONITOR dynamic field statistics
(PID.TID 0000.0001) // =======================================================
 cg2d: Sum(rhs),rhsMax =  -1.39082233517793E-04  1.39265698834280E-01
 cg2d: Sum(rhs),rhsMax =  -1.39329193063122E-04  1.39266147211889E-01
 cg2d: Sum(rhs),rhsMax =  -1.39576242796070E-04  1.39266590546660E-01
 cg2d: Sum(rhs),rhsMax =  -1.39823388761081E-04  1.39267028834851E-01
 cg2d: Sum(rhs),rhsMax =  -1.40070637035313E-04  1.39267462072739E-01
 cg2d: Sum(rhs),rhsMax =  -1.40317993748506E-04  1.39267890256618E-01
 cg2d: Sum(rhs),rhsMax =  -1.40565464836072E-04  1.39268313382798E-01
 cg2d: Sum(rhs),rhsMax =  -1.40813056247716E-04  1.39268731447606E-01
 cg2d: Sum(rhs),rhsMax =  -1.41060773877944E-04  1.39269144447388E-01
 cg2d: Sum(rhs),rhsMax =  -1.41308623551928E-04  1.39269552378504E-01
 cg2d: Sum(rhs),rhsMax =  -1.41556611133660E-04  1.39269955237334E-01
 cg2d: Sum(rhs),rhsMax =  -1.41804742362073E-04  1.39270353020275E-01
 cg2d: Sum(rhs),rhsMax =  -1.42053022936526E-04  1.39270745723739E-01
 cg2d: Sum(rhs),rhsMax =  -1.42301458417535E-04  1.39271133344157E-01
 cg2d: Sum(rhs),rhsMax =  -1.42550054588068E-04  1.39271515877977E-01
 cg2d: Sum(rhs),rhsMax =  -1.42798816763965E-04  1.39271893321663E-01
 cg2d: Sum(rhs),rhsMax =  -1.43047750629541E-04  1.39272265671697E-01
 cg2d: Sum(rhs),rhsMax =  -1.43296861439299E-04  1.39272632924579E-01
 cg2d: Sum(rhs),rhsMax =  -1.43546154701365E-04  1.39272995076825E-01
 cg2d: Sum(rhs),rhsMax =  -1.43795635611642E-04  1.39273352124968E-01
 cg2d: Sum(rhs),rhsMax =  -1.44045309525373E-04  1.39273704065560E-01
 cg2d: Sum(rhs),rhsMax =  -1.44295181473901E-04  1.39274050895168E-01
 cg2d: Sum(rhs),rhsMax =  -1.44545256695469E-04  1.39274392610378E-01
 cg2d: Sum(rhs),rhsMax =  -1.44795540154211E-04  1.39274729207792E-01
 cg2d: Sum(rhs),rhsMax =  -1.45046036859637E-04  1.39275060684032E-01
 cg2d: Sum(rhs),rhsMax =  -1.45296751623294E-04  1.39275387035731E-01
 cg2d: Sum(rhs),rhsMax =  -1.45547689340352E-04  1.39275708259548E-01
 cg2d: Sum(rhs),rhsMax =  -1.45798854856346E-04  1.39276024352151E-01
 cg2d: Sum(rhs),rhsMax =  -1.46050252719230E-04  1.39276335310231E-01
 cg2d: Sum(rhs),rhsMax =  -1.46301887509431E-04  1.39276641130493E-01
 cg2d: Sum(rhs),rhsMax =  -1.46553763816949E-04  1.39276941809663E-01
 cg2d: Sum(rhs),rhsMax =  -1.46805885959118E-04  1.39277237344478E-01
 cg2d: Sum(rhs),rhsMax =  -1.47058258388896E-04  1.39277527731699E-01
 cg2d: Sum(rhs),rhsMax =  -1.47310885363219E-04  1.39277812968102E-01
 cg2d: Sum(rhs),rhsMax =  -1.47563770941887E-04  1.39278093050479E-01
 cg2d: Sum(rhs),rhsMax =  -1.47816919247325E-04  1.39278367975639E-01
 cg2d: Sum(rhs),rhsMax =  -1.48070334314831E-04  1.39278637740411E-01
 cg2d: Sum(rhs),rhsMax =  -1.48324020000977E-04  1.39278902341640E-01
 cg2d: Sum(rhs),rhsMax =  -1.48577980151788E-04  1.39279161776187E-01
 cg2d: Sum(rhs),rhsMax =  -1.48832218403935E-04  1.39279416040935E-01
 cg2d: Sum(rhs),rhsMax =  -1.49086738413823E-04  1.39279665132778E-01
 cg2d: Sum(rhs),rhsMax =  -1.49341543632946E-04  1.39279909048631E-01
 cg2d: Sum(rhs),rhsMax =  -1.49596637472069E-04  1.39280147785427E-01
 cg2d: Sum(rhs),rhsMax =  -1.49852023276153E-04  1.39280381340115E-01
 cg2d: Sum(rhs),rhsMax =  -1.50107704109450E-04  1.39280609709661E-01
 cg2d: Sum(rhs),rhsMax =  -1.50363683091589E-04  1.39280832891050E-01
 cg2d: Sum(rhs),rhsMax =  -1.50619963327913E-04  1.39281050881284E-01
 cg2d: Sum(rhs),rhsMax =  -1.50876547451855E-04  1.39281263677380E-01
 cg2d: Sum(rhs),rhsMax =  -1.51133438307109E-04  1.39281471276377E-01
 cg2d: Sum(rhs),rhsMax =  -1.51390638589835E-04  1.39281673675328E-01
 cg2d: Sum(rhs),rhsMax =  -1.51648150681722E-04  1.39281870871303E-01
 cg2d: Sum(rhs),rhsMax =  -1.51905976950571E-04  1.39282062861394E-01
 cg2d: Sum(rhs),rhsMax =  -1.52164119754289E-04  1.39282249642704E-01
 cg2d: Sum(rhs),rhsMax =  -1.52422581254305E-04  1.39282431212360E-01
 cg2d: Sum(rhs),rhsMax =  -1.52681363251350E-04  1.39282607567501E-01
 cg2d: Sum(rhs),rhsMax =  -1.52940467968280E-04  1.39282778705286E-01
 cg2d: Sum(rhs),rhsMax =  -1.53199897029144E-04  1.39282944622893E-01
 cg2d: Sum(rhs),rhsMax =  -1.53459652105540E-04  1.39283105317516E-01
 cg2d: Sum(rhs),rhsMax =  -1.53719734696361E-04  1.39283260786363E-01
 cg2d: Sum(rhs),rhsMax =  -1.53980146336792E-04  1.39283411026666E-01
 cg2d: Sum(rhs),rhsMax =  -1.54240888247769E-04  1.39283556035671E-01
 cg2d: Sum(rhs),rhsMax =  -1.54501961518936E-04  1.39283695810642E-01
 cg2d: Sum(rhs),rhsMax =  -1.54763367320254E-04  1.39283830348859E-01
 cg2d: Sum(rhs),rhsMax =  -1.55025106445698E-04  1.39283959647622E-01
 cg2d: Sum(rhs),rhsMax =  -1.55287179894138E-04  1.39284083704249E-01
 cg2d: Sum(rhs),rhsMax =  -1.55549588135725E-04  1.39284202516073E-01
 cg2d: Sum(rhs),rhsMax =  -1.55812331848001E-04  1.39284316080445E-01
 cg2d: Sum(rhs),rhsMax =  -1.56075411638716E-04  1.39284424394735E-01
 cg2d: Sum(rhs),rhsMax =  -1.56338827618225E-04  1.39284527456331E-01
 cg2d: Sum(rhs),rhsMax =  -1.56602580155211E-04  1.39284625262636E-01
 cg2d: Sum(rhs),rhsMax =  -1.56866669410977E-04  1.39284717811073E-01
 cg2d: Sum(rhs),rhsMax =  -1.57131095291230E-04  1.39284805099080E-01
(PID.TID 0000.0001)      cg2d_init_res =   5.58830411729138E-04
(PID.TID 0000.0001)      cg2d_iters(min,last) =      -1      72
(PID.TID 0000.0001)      cg2d_last_res =   8.13647666756785E-08
(PID.TID 0000.0001) // =======================================================
(PID.TID 0000.0001) // Begin MONITOR dynamic field statistics
(PID.TID 0000.0001) // =======================================================
(PID.TID 0000.0001) %MON time_tsnumber                =                 17712
(PID.TID 0000.0001) %MON time_secondsf                =   2.1254400000000E+07
(PID.TID 0000.0001) %MON dynstat_eta_max              =   4.7849726100292E-02
(PID.TID 0000.0001) %MON dynstat_eta_min              =  -2.0817980310901E-02
(PID.TID 0000.0001) %MON dynstat_eta_mean             =   1.0961432157528E-07
(PID.TID 0000.0001) %MON dynstat_eta_sd               =   1.8084562465796E-02
(PID.TID 0000.0001) %MON dynstat_eta_del2             =   1.7771861860821E-05
(PID.TID 0000.0001) %MON dynstat_uvel_max             =   3.1210613465166E-02
(PID.TID 0000.0001) %MON dynstat_uvel_min             =  -1.6078781704343E-02
(PID.TID 0000.0001) %MON dynstat_uvel_mean            =  -8.3870039237840E-09
(PID.TID 0000.0001) %MON dynstat_uvel_sd              =   6.7346431073396E-03
(PID.TID 0000.0001) %MON dynstat_uvel_del2            =   7.9454852088282E-06
(PID.TID 0000.0001) %MON dynstat_vvel_max             =   8.3596524785341E-02
(PID.TID 0000.0001) %MON dynstat_vvel_min             =  -3.0937190134758E-02
(PID.TID 0000.0001) %MON dynstat_vvel_mean            =   1.4326999435237E-08
(PID.TID 0000.0001) %MON dynstat_vvel_sd              =   1.4804409710767E-02
(PID.TID 0000.0001) %MON dynstat_vvel_del2            =   7.4569019303734E-05
(PID.TID 0000.0001) %MON dynstat_wvel_max             =   4.4583862697436E-09
(PID.TID 0000.0001) %MON dynstat_wvel_min             =  -9.9238206160953E-09
(PID.TID 0000.0001) %MON dynstat_wvel_mean            =  -1.5256210240801E-21
(PID.TID 0000.0001) %MON dynstat_wvel_sd              =   3.4829231053445E-09
(PID.TID 0000.0001) %MON dynstat_wvel_del2            =   1.1688086997898E-12
(PID.TID 0000.0001) %MON dynstat_theta_max            =   2.0000000000000E+01
(PID.TID 0000.0001) %MON dynstat_theta_min            =   2.0000000000000E+01
(PID.TID 0000.0001) %MON dynstat_theta_mean           =   2.0000000000000E+01
(PID.TID 0000.0001) %MON dynstat_theta_sd             =   0.0000000000000E+00
(PID.TID 0000.0001) %MON dynstat_theta_del2           =   0.0000000000000E+00
(PID.TID 0000.0001) %MON dynstat_salt_max             =   3.0000000000000E+01
(PID.TID 0000.0001) %MON dynstat_salt_min             =   3.0000000000000E+01
(PID.TID 0000.0001) %MON dynstat_salt_mean            =   3.0000000000000E+01
(PID.TID 0000.0001) %MON dynstat_salt_sd              =   0.0000000000000E+00
(PID.TID 0000.0001) %MON dynstat_salt_del2            =   0.0000000000000E+00
(PID.TID 0000.0001) %MON trAdv_CFL_u_max              =   1.8726340610148E-03
(PID.TID 0000.0001) %MON trAdv_CFL_v_max              =   5.0157598155285E-03
(PID.TID 0000.0001) %MON trAdv_CFL_w_max              =   1.0687443172574E-09
(PID.TID 0000.0001) %MON advcfl_uvel_max              =   1.8726368079100E-03
(PID.TID 0000.0001) %MON advcfl_vvel_max              =   5.0157914871205E-03
(PID.TID 0000.0001) %MON advcfl_wvel_max              =   4.7634338957258E-09
(PID.TID 0000.0001) %MON advcfl_W_hf_max              =   0.0000000000000E+00
(PID.TID 0000.0001) %MON pe_b_mean                    =   3.2083742299906E-07
(PID.TID 0000.0001) %MON ke_max                       =   3.4930930807709E-03
(PID.TID 0000.0001) %MON ke_mean                      =   1.3005859929498E-04
(PID.TID 0000.0001) %MON ke_vol                       =   7.2000000000000E+15
(PID.TID 0000.0001) %MON vort_r_min                   =  -1.4691259715271E-06
(PID.TID 0000.0001) %MON vort_r_max                   =   2.3062200587368E-06
(PID.TID 0000.0001) %MON vort_a_mean                  =   1.0600000000000E-04
(PID.TID 0000.0001) %MON vort_a_sd                    =   3.5367950165907E-06
(PID.TID 0000.0001) %MON vort_p_mean                  =   1.1130000000000E-04
(PID.TID 0000.0001) %MON vort_p_sd                    =   4.1150743299745E-05
(PID.TID 0000.0001) %MON surfExpan_theta_mean         =  -3.0516071151491E-20
(PID.TID 0000.0001) %MON surfExpan_salt_mean          =  -4.5771581586646E-20
(PID.TID 0000.0001) // =======================================================
(PID.TID 0000.0001) // End MONITOR dynamic field statistics
(PID.TID 0000.0001) // =======================================================
 cg2d: Sum(rhs),rhsMax =  -1.57395857978807E-04  1.39284887124117E-01
 cg2d: Sum(rhs),rhsMax =  -1.57660957242915E-04  1.39284963883657E-01
 cg2d: Sum(rhs),rhsMax =  -1.57926392895693E-04  1.39285035375194E-01
 cg2d: Sum(rhs),rhsMax =  -1.58192164690600E-04  1.39285101596236E-01
 cg2d: Sum(rhs),rhsMax =  -1.58458272264867E-04  1.39285162544313E-01
 cg2d: Sum(rhs),rhsMax =  -1.58724715276109E-04  1.39285218216970E-01
 cg2d: Sum(rhs),rhsMax =  -1.58991493340145E-04  1.39285268611769E-01
 cg2d: Sum(rhs),rhsMax =  -1.59258605963232E-04  1.39285313726291E-01
 cg2d: Sum(rhs),rhsMax =  -1.59526052595497E-04  1.39285353558135E-01
 cg2d: Sum(rhs),rhsMax =  -1.59793832925998E-04  1.39285388104918E-01
 cg2d: Sum(rhs),rhsMax =  -1.60061946406921E-04  1.39285417364272E-01
 cg2d: Sum(rhs),rhsMax =  -1.60330392568097E-04  1.39285441333849E-01
 cg2d: Sum(rhs),rhsMax =  -1.60599170888523E-04  1.39285460011319E-01
 cg2d: Sum(rhs),rhsMax =  -1.60868281076506E-04  1.39285473394366E-01
 cg2d: Sum(rhs),rhsMax =  -1.61137722760571E-04  1.39285481480698E-01
 cg2d: Sum(rhs),rhsMax =  -1.61407495854503E-04  1.39285484268035E-01
 cg2d: Sum(rhs),rhsMax =  -1.61677600121165E-04  1.39285481754119E-01
 cg2d: Sum(rhs),rhsMax =  -1.61948035472932E-04  1.39285473936704E-01
 cg2d: Sum(rhs),rhsMax =  -1.62218802212242E-04  1.39285460813570E-01
 cg2d: Sum(rhs),rhsMax =  -1.62489900599395E-04  1.39285442382506E-01
 cg2d: Sum(rhs),rhsMax =  -1.62761330954182E-04  1.39285418641324E-01
 cg2d: Sum(rhs),rhsMax =  -1.63033094010620E-04  1.39285389587853E-01
 cg2d: Sum(rhs),rhsMax =  -1.63305190707664E-04  1.39285355219939E-01
 cg2d: Sum(rhs),rhsMax =  -1.63577622022011E-04  1.39285315535447E-01
 cg2d: Sum(rhs),rhsMax =  -1.63850389462311E-04  1.39285270532258E-01
 cg2d: Sum(rhs),rhsMax =  -1.64123494658820E-04  1.39285220208270E-01
 cg2d: Sum(rhs),rhsMax =  -1.64396939544676E-04  1.39285164561402E-01
 cg2d: Sum(rhs),rhsMax =  -1.64670726518195E-04  1.39285103589589E-01
 cg2d: Sum(rhs),rhsMax =  -1.64944858066619E-04  1.39285037290783E-01
 cg2d: Sum(rhs),rhsMax =  -1.65219337194085E-04  1.39284965662956E-01
 cg2d: Sum(rhs),rhsMax =  -1.65493803290882E-04  1.39285195157100E-01
 cg2d: Sum(rhs),rhsMax =  -1.65768609997492E-04  1.39285430117369E-01
 cg2d: Sum(rhs),rhsMax =  -1.66043774616010E-04  1.39285659601089E-01
 cg2d: Sum(rhs),rhsMax =  -1.66319301674018E-04  1.39285883606103E-01
 cg2d: Sum(rhs),rhsMax =  -1.66595196090441E-04  1.39286102130273E-01
 cg2d: Sum(rhs),rhsMax =  -1.66871463552754E-04  1.39286315171478E-01
 cg2d: Sum(rhs),rhsMax =  -1.67148109790780E-04  1.39286522727612E-01
 cg2d: Sum(rhs),rhsMax =  -1.67425141348276E-04  1.39286724796595E-01
 cg2d: Sum(rhs),rhsMax =  -1.67702564949096E-04  1.39286921376357E-01
 cg2d: Sum(rhs),rhsMax =  -1.67980387975518E-04  1.39287112464851E-01
 cg2d: Sum(rhs),rhsMax =  -1.68258618080996E-04  1.39287298060047E-01
 cg2d: Sum(rhs),rhsMax =  -1.68537263651348E-04  1.39287478159933E-01
 cg2d: Sum(rhs),rhsMax =  -1.68816333146578E-04  1.39287652762515E-01
 cg2d: Sum(rhs),rhsMax =  -1.69095835761705E-04  1.39287821865817E-01
 cg2d: Sum(rhs),rhsMax =  -1.69375781028202E-04  1.39287985467882E-01
 cg2d: Sum(rhs),rhsMax =  -1.69656178867388E-04  1.39288143566772E-01
 cg2d: Sum(rhs),rhsMax =  -1.69937039454820E-04  1.39288296160564E-01
 cg2d: Sum(rhs),rhsMax =  -1.70218373625445E-04  1.39288443247357E-01
 cg2d: Sum(rhs),rhsMax =  -1.70500192225729E-04  1.39288584825265E-01
 cg2d: Sum(rhs),rhsMax =  -1.70782506673372E-04  1.39288720892423E-01
 cg2d: Sum(rhs),rhsMax =  -1.71065328438525E-04  1.39288851446982E-01
 cg2d: Sum(rhs),rhsMax =  -1.71348669464811E-04  1.39288976487113E-01
 cg2d: Sum(rhs),rhsMax =  -1.71632541792842E-04  1.39289096011003E-01
 cg2d: Sum(rhs),rhsMax =  -1.71916957746467E-04  1.39289210016859E-01
 cg2d: Sum(rhs),rhsMax =  -1.72201929800338E-04  1.39289318502907E-01
 cg2d: Sum(rhs),rhsMax =  -1.72487470396250E-04  1.39289421467389E-01
 cg2d: Sum(rhs),rhsMax =  -1.72773592192183E-04  1.39289518908567E-01
 cg2d: Sum(rhs),rhsMax =  -1.73060308109571E-04  1.39289610824719E-01
 cg2d: Sum(rhs),rhsMax =  -1.73347630710651E-04  1.39289697214145E-01
 cg2d: Sum(rhs),rhsMax =  -1.73635572829294E-04  1.39289778075159E-01
 cg2d: Sum(rhs),rhsMax =  -1.73924147139590E-04  1.39289853406097E-01
 cg2d: Sum(rhs),rhsMax =  -1.74213366248702E-04  1.39289923205310E-01
 cg2d: Sum(rhs),rhsMax =  -1.74503242547606E-04  1.39289987471171E-01
 cg2d: Sum(rhs),rhsMax =  -1.74793788672157E-04  1.39290046202067E-01
 cg2d: Sum(rhs),rhsMax =  -1.75085016760146E-04  1.39290099396407E-01
 cg2d: Sum(rhs),rhsMax =  -1.75376938720204E-04  1.39290147052616E-01
 cg2d: Sum(rhs),rhsMax =  -1.75669566591941E-04  1.39290189169138E-01
 cg2d: Sum(rhs),rhsMax =  -1.75962911889289E-04  1.39290225744438E-01
 cg2d: Sum(rhs),rhsMax =  -1.76256986081783E-04  1.39290256776992E-01
 cg2d: Sum(rhs),rhsMax =  -1.76551800190440E-04  1.39290282265302E-01
 cg2d: Sum(rhs),rhsMax =  -1.76847365053034E-04  1.39290302207885E-01
 cg2d: Sum(rhs),rhsMax =  -1.77143691253714E-04  1.39290316603277E-01
(PID.TID 0000.0001)      cg2d_init_res =   5.58122266021263E-04
(PID.TID 0000.0001)      cg2d_iters(min,last) =      -1      72
(PID.TID 0000.0001)      cg2d_last_res =   7.66154980135964E-08
(PID.TID 0000.0001) // =======================================================
(PID.TID 0000.0001) // Begin MONITOR dynamic field statistics
(PID.TID 0000.0001) // =======================================================
(PID.TID 0000.0001) %MON time_tsnumber                =                 17784
(PID.TID 0000.0001) %MON time_secondsf                =   2.1340800000000E+07
(PID.TID 0000.0001) %MON dynstat_eta_max              =   4.8094499217694E-02
(PID.TID 0000.0001) %MON dynstat_eta_min              =  -2.0617407133689E-02
(PID.TID 0000.0001) %MON dynstat_eta_mean             =   1.2357892627726E-07
(PID.TID 0000.0001) %MON dynstat_eta_sd               =   1.8016736846312E-02
(PID.TID 0000.0001) %MON dynstat_eta_del2             =   1.7776603059368E-05
(PID.TID 0000.0001) %MON dynstat_uvel_max             =   3.1211347903517E-02
(PID.TID 0000.0001) %MON dynstat_uvel_min             =  -1.6074099443114E-02
(PID.TID 0000.0001) %MON dynstat_uvel_mean            =   8.3383189704264E-09
(PID.TID 0000.0001) %MON dynstat_uvel_sd              =   6.6911133496935E-03
(PID.TID 0000.0001) %MON dynstat_uvel_del2            =   7.9197590864451E-06
(PID.TID 0000.0001) %MON dynstat_vvel_max             =   8.3626571897061E-02
(PID.TID 0000.0001) %MON dynstat_vvel_min             =  -3.0971344397016E-02
(PID.TID 0000.0001) %MON dynstat_vvel_mean            =   1.4075376713392E-08
(PID.TID 0000.0001) %MON dynstat_vvel_sd              =   1.4808258045710E-02
(PID.TID 0000.0001) %MON dynstat_vvel_del2            =   7.4610822455993E-05
(PID.TID 0000.0001) %MON dynstat_wvel_max             =   4.8583875322265E-09
(PID.TID 0000.0001) %MON dynstat_wvel_min             =  -9.8014922646689E-09
(PID.TID 0000.0001) %MON dynstat_wvel_mean            =  -1.0264183300832E-21
(PID.TID 0000.0001) %MON dynstat_wvel_sd              =   3.4737157221190E-09
(PID.TID 0000.0001) %MON dynstat_wvel_del2            =   1.1624573243182E-12
(PID.TID 0000.0001) %MON dynstat_theta_max            =   2.0000000000000E+01
(PID.TID 0000.0001) %MON dynstat_theta_min            =   2.0000000000000E+01
(PID.TID 0000.0001) %MON dynstat_theta_mean           =   2.0000000000000E+01
(PID.TID 0000.0001) %MON dynstat_theta_sd             =   0.0000000000000E+00
(PID.TID 0000.0001) %MON dynstat_theta_del2           =   0.0000000000000E+00
(PID.TID 0000.0001) %MON dynstat_salt_max             =   3.0000000000000E+01
(PID.TID 0000.0001) %MON dynstat_salt_min             =   3.0000000000000E+01
(PID.TID 0000.0001) %MON dynstat_salt_mean            =   3.0000000000000E+01
(PID.TID 0000.0001) %MON dynstat_salt_sd              =   0.0000000000000E+00
(PID.TID 0000.0001) %MON dynstat_salt_del2            =   0.0000000000000E+00
(PID.TID 0000.0001) %MON trAdv_CFL_u_max              =   1.8726823733612E-03
(PID.TID 0000.0001) %MON trAdv_CFL_v_max              =   5.0175758366570E-03
(PID.TID 0000.0001) %MON trAdv_CFL_w_max              =   1.1646680684029E-09
(PID.TID 0000.0001) %MON advcfl_uvel_max              =   1.8726808742110E-03
(PID.TID 0000.0001) %MON advcfl_vvel_max              =   5.0175943138237E-03
(PID.TID 0000.0001) %MON advcfl_wvel_max              =   4.7047162870411E-09
(PID.TID 0000.0001) %MON advcfl_W_hf_max              =   0.0000000000000E+00
(PID.TID 0000.0001) %MON pe_b_mean                    =   3.1843535327904E-07
(PID.TID 0000.0001) %MON ke_max                       =   3.4961760602228E-03
(PID.TID 0000.0001) %MON ke_mean                      =   1.2982728956846E-04
(PID.TID 0000.0001) %MON ke_vol                       =   7.2000000000000E+15
(PID.TID 0000.0001) %MON vort_r_min                   =  -1.4683395099296E-06
(PID.TID 0000.0001) %MON vort_r_max                   =   2.3061723528095E-06
(PID.TID 0000.0001) %MON vort_a_mean                  =   1.0600000000000E-04
(PID.TID 0000.0001) %MON vort_a_sd                    =   3.5368017023417E-06
(PID.TID 0000.0001) %MON vort_p_mean                  =   1.1130000000000E-04
(PID.TID 0000.0001) %MON vort_p_sd                    =   4.1150703775985E-05
(PID.TID 0000.0001) %MON surfExpan_theta_mean         =  -2.0542579982753E-20
(PID.TID 0000.0001) %MON surfExpan_salt_mean          =  -3.0813869974130E-20
(PID.TID 0000.0001) // =======================================================
(PID.TID 0000.0001) // End MONITOR dynamic field statistics
(PID.TID 0000.0001) // =======================================================
 cg2d: Sum(rhs),rhsMax =  -1.77440789035185E-04  1.39290325450031E-01
 cg2d: Sum(rhs),rhsMax =  -1.77738668355833E-04  1.39290328746721E-01
 cg2d: Sum(rhs),rhsMax =  -1.78037338686231E-04  1.39290326491936E-01
 cg2d: Sum(rhs),rhsMax =  -1.78336809437396E-04  1.39290318684286E-01
 cg2d: Sum(rhs),rhsMax =  -1.78637089524675E-04  1.39290305322397E-01
 cg2d: Sum(rhs),rhsMax =  -1.78938187680958E-04  1.39290286404917E-01
 cg2d: Sum(rhs),rhsMax =  -1.79240112046871E-04  1.39290261930508E-01
 cg2d: Sum(rhs),rhsMax =  -1.79542870778156E-04  1.39290231897854E-01
 cg2d: Sum(rhs),rhsMax =  -1.79846471362691E-04  1.39290196305655E-01
 cg2d: Sum(rhs),rhsMax =  -1.80150921394462E-04  1.39290155152630E-01
 cg2d: Sum(rhs),rhsMax =  -1.80456227785480E-04  1.39290108437518E-01
 cg2d: Sum(rhs),rhsMax =  -1.80762397330541E-04  1.39290056159073E-01
 cg2d: Sum(rhs),rhsMax =  -1.81069436502574E-04  1.39289998316070E-01
 cg2d: Sum(rhs),rhsMax =  -1.81377351468735E-04  1.39289934907303E-01
 cg2d: Sum(rhs),rhsMax =  -1.81686148191825E-04  1.39289865931581E-01
 cg2d: Sum(rhs),rhsMax =  -1.81995832370679E-04  1.39289791387734E-01
 cg2d: Sum(rhs),rhsMax =  -1.82306409358081E-04  1.39289711274610E-01
 cg2d: Sum(rhs),rhsMax =  -1.82617884357223E-04  1.39289625591076E-01
 cg2d: Sum(rhs),rhsMax =  -1.82930262365500E-04  1.39289534336014E-01
 cg2d: Sum(rhs),rhsMax =  -1.83243548073989E-04  1.39289437508330E-01
 cg2d: Sum(rhs),rhsMax =  -1.83557746075426E-04  1.39289335106944E-01
 cg2d: Sum(rhs),rhsMax =  -1.83872860746667E-04  1.39289227130794E-01
 cg2d: Sum(rhs),rhsMax =  -1.84188896201274E-04  1.39289113578840E-01
 cg2d: Sum(rhs),rhsMax =  -1.84505856617714E-04  1.39288994450057E-01
 cg2d: Sum(rhs),rhsMax =  -1.84823745778569E-04  1.39288869743441E-01
 cg2d: Sum(rhs),rhsMax =  -1.85142567511725E-04  1.39288739458004E-01
 cg2d: Sum(rhs),rhsMax =  -1.85462325554445E-04  1.39288603592779E-01
 cg2d: Sum(rhs),rhsMax =  -1.85783023227989E-04  1.39288462146815E-01
 cg2d: Sum(rhs),rhsMax =  -1.86104663968702E-04  1.39288315119179E-01
 cg2d: Sum(rhs),rhsMax =  -1.86427251281271E-04  1.39288162508960E-01
 cg2d: Sum(rhs),rhsMax =  -1.86750788411084E-04  1.39288004315261E-01
 cg2d: Sum(rhs),rhsMax =  -1.87075278618372E-04  1.39287840537206E-01
 cg2d: Sum(rhs),rhsMax =  -1.87400724945868E-04  1.39287671173937E-01
 cg2d: Sum(rhs),rhsMax =  -1.87727130600357E-04  1.39287496224614E-01
 cg2d: Sum(rhs),rhsMax =  -1.88054498726760E-04  1.39287315688416E-01
 cg2d: Sum(rhs),rhsMax =  -1.88382832341392E-04  1.39287129564539E-01
 cg2d: Sum(rhs),rhsMax =  -1.88712134600977E-04  1.39286937852198E-01
 cg2d: Sum(rhs),rhsMax =  -1.89042408507311E-04  1.39286740550627E-01
 cg2d: Sum(rhs),rhsMax =  -1.89373657401814E-04  1.39286537659078E-01
 cg2d: Sum(rhs),rhsMax =  -1.89705883986620E-04  1.39286329176822E-01
 cg2d: Sum(rhs),rhsMax =  -1.90039091747231E-04  1.39286115103146E-01
 cg2d: Sum(rhs),rhsMax =  -1.90373283668063E-04  1.39285895437359E-01
 cg2d: Sum(rhs),rhsMax =  -1.90708462982225E-04  1.39285670178786E-01
 cg2d: Sum(rhs),rhsMax =  -1.91044633048186E-04  1.39285439326769E-01
 cg2d: Sum(rhs),rhsMax =  -1.91381797131590E-04  1.39285202880673E-01
 cg2d: Sum(rhs),rhsMax =  -1.91719958676101E-04  1.39284960839877E-01
 cg2d: Sum(rhs),rhsMax =  -1.92059121118741E-04  1.39284713203780E-01
 cg2d: Sum(rhs),rhsMax =  -1.92399287944648E-04  1.39284459971799E-01
 cg2d: Sum(rhs),rhsMax =  -1.92740462862405E-04  1.39284201143371E-01
 cg2d: Sum(rhs),rhsMax =  -1.93082649606641E-04  1.39283936717949E-01
 cg2d: Sum(rhs),rhsMax =  -1.93425851934808E-04  1.39283666695005E-01
 cg2d: Sum(rhs),rhsMax =  -1.93770073806779E-04  1.39283391074030E-01
 cg2d: Sum(rhs),rhsMax =  -1.94115319093194E-04  1.39283109854535E-01
 cg2d: Sum(rhs),rhsMax =  -1.94461592086503E-04  1.39282823036045E-01
 cg2d: Sum(rhs),rhsMax =  -1.94808896952207E-04  1.39282530618108E-01
 cg2d: Sum(rhs),rhsMax =  -1.95157238061512E-04  1.39282232600287E-01
 cg2d: Sum(rhs),rhsMax =  -1.95506619843044E-04  1.39281928982164E-01
 cg2d: Sum(rhs),rhsMax =  -1.95857047044365E-04  1.39281619763342E-01
 cg2d: Sum(rhs),rhsMax =  -1.96208524201385E-04  1.39281304943439E-01
 cg2d: Sum(rhs),rhsMax =  -1.96561056312538E-04  1.39280984522094E-01
 cg2d: Sum(rhs),rhsMax =  -1.96914648319912E-04  1.39280658498962E-01
 cg2d: Sum(rhs),rhsMax =  -1.97269305259522E-04  1.39280326873717E-01
 cg2d: Sum(rhs),rhsMax =  -1.97625032541612E-04  1.39279989646052E-01
 cg2d: Sum(rhs),rhsMax =  -1.97981835496110E-04  1.39279646815680E-01
 cg2d: Sum(rhs),rhsMax =  -1.98339719656019E-04  1.39279298382329E-01
 cg2d: Sum(rhs),rhsMax =  -1.98757887631553E-04  1.39278944016273E-01
 cg2d: Sum(rhs),rhsMax =  -1.99177082273557E-04  1.39278584356227E-01
 cg2d: Sum(rhs),rhsMax =  -1.99597432072759E-04  1.39278219107038E-01
 cg2d: Sum(rhs),rhsMax =  -2.00018885285362E-04  1.39277848256036E-01
 cg2d: Sum(rhs),rhsMax =  -2.00441444953994E-04  1.39277471801639E-01
 cg2d: Sum(rhs),rhsMax =  -2.00865115606337E-04  1.39277089743094E-01
 cg2d: Sum(rhs),rhsMax =  -2.01289907413949E-04  1.39276702080836E-01
(PID.TID 0000.0001)      cg2d_init_res =   5.57528409167915E-04
(PID.TID 0000.0001)      cg2d_iters(min,last) =      -1      71
(PID.TID 0000.0001)      cg2d_last_res =   9.97766567625880E-08
(PID.TID 0000.0001) // =======================================================
(PID.TID 0000.0001) // Begin MONITOR dynamic field statistics
(PID.TID 0000.0001) // =======================================================
(PID.TID 0000.0001) %MON time_tsnumber                =                 17856
(PID.TID 0000.0001) %MON time_secondsf                =   2.1427200000000E+07
(PID.TID 0000.0001) %MON dynstat_eta_max              =   4.8318043190353E-02
(PID.TID 0000.0001) %MON dynstat_eta_min              =  -2.0418090408588E-02
(PID.TID 0000.0001) %MON dynstat_eta_mean             =   1.4047118175834E-07
(PID.TID 0000.0001) %MON dynstat_eta_sd               =   1.7931293565497E-02
(PID.TID 0000.0001) %MON dynstat_eta_del2             =   1.7780996990578E-05
(PID.TID 0000.0001) %MON dynstat_uvel_max             =   3.1206872928508E-02
(PID.TID 0000.0001) %MON dynstat_uvel_min             =  -1.6063224019523E-02
(PID.TID 0000.0001) %MON dynstat_uvel_mean            =   2.4949240557096E-08
(PID.TID 0000.0001) %MON dynstat_uvel_sd              =   6.6448955369584E-03
(PID.TID 0000.0001) %MON dynstat_uvel_del2            =   7.8927919555509E-06
(PID.TID 0000.0001) %MON dynstat_vvel_max             =   8.3640559458564E-02
(PID.TID 0000.0001) %MON dynstat_vvel_min             =  -3.1014097805303E-02
(PID.TID 0000.0001) %MON dynstat_vvel_mean            =   1.3704101124005E-08
(PID.TID 0000.0001) %MON dynstat_vvel_sd              =   1.4808835242289E-02
(PID.TID 0000.0001) %MON dynstat_vvel_del2            =   7.4644124420867E-05
(PID.TID 0000.0001) %MON dynstat_wvel_max             =   5.2386983819451E-09
(PID.TID 0000.0001) %MON dynstat_wvel_min             =  -9.6719378224225E-09
(PID.TID 0000.0001) %MON dynstat_wvel_mean            =  -2.9440540553575E-21
(PID.TID 0000.0001) %MON dynstat_wvel_sd              =   3.4668083095662E-09
(PID.TID 0000.0001) %MON dynstat_wvel_del2            =   1.1625818972820E-12
(PID.TID 0000.0001) %MON dynstat_theta_max            =   2.0000000000000E+01
(PID.TID 0000.0001) %MON dynstat_theta_min            =   2.0000000000000E+01
(PID.TID 0000.0001) %MON dynstat_theta_mean           =   2.0000000000000E+01
(PID.TID 0000.0001) %MON dynstat_theta_sd             =   0.0000000000000E+00
(PID.TID 0000.0001) %MON dynstat_theta_del2           =   0.0000000000000E+00
(PID.TID 0000.0001) %MON dynstat_salt_max             =   3.0000000000000E+01
(PID.TID 0000.0001) %MON dynstat_salt_min             =   3.0000000000000E+01
(PID.TID 0000.0001) %MON dynstat_salt_mean            =   3.0000000000000E+01
(PID.TID 0000.0001) %MON dynstat_salt_sd              =   0.0000000000000E+00
(PID.TID 0000.0001) %MON dynstat_salt_del2            =   0.0000000000000E+00
(PID.TID 0000.0001) %MON trAdv_CFL_u_max              =   1.8724182966368E-03
(PID.TID 0000.0001) %MON trAdv_CFL_v_max              =   5.0184205363965E-03
(PID.TID 0000.0001) %MON trAdv_CFL_w_max              =   1.2560880864894E-09
(PID.TID 0000.0001) %MON advcfl_uvel_max              =   1.8724123757105E-03
(PID.TID 0000.0001) %MON advcfl_vvel_max              =   5.0184335675138E-03
(PID.TID 0000.0001) %MON advcfl_wvel_max              =   4.6425301547628E-09
(PID.TID 0000.0001) %MON advcfl_W_hf_max              =   0.0000000000000E+00
(PID.TID 0000.0001) %MON pe_b_mean                    =   3.1542219446169E-07
(PID.TID 0000.0001) %MON ke_max                       =   3.4978821347013E-03
(PID.TID 0000.0001) %MON ke_mean                      =   1.2953265031616E-04
(PID.TID 0000.0001) %MON ke_vol                       =   7.2000000000000E+15
(PID.TID 0000.0001) %MON vort_r_min                   =  -1.4675914187781E-06
(PID.TID 0000.0001) %MON vort_r_max                   =   2.3056282042924E-06
(PID.TID 0000.0001) %MON vort_a_mean                  =   1.0600000000000E-04
(PID.TID 0000.0001) %MON vort_a_sd                    =   3.5368035736219E-06
(PID.TID 0000.0001) %MON vort_p_mean                  =   1.1130000000000E-04
(PID.TID 0000.0001) %MON vort_p_sd                    =   4.1150666740548E-05
(PID.TID 0000.0001) %MON surfExpan_theta_mean         =  -5.8883468471530E-20
(PID.TID 0000.0001) %MON surfExpan_salt_mean          =  -8.8323938286629E-20
(PID.TID 0000.0001) // =======================================================
(PID.TID 0000.0001) // End MONITOR dynamic field statistics
(PID.TID 0000.0001) // =======================================================
 cg2d: Sum(rhs),rhsMax =  -2.01715830891572E-04  1.39276308814354E-01
 cg2d: Sum(rhs),rhsMax =  -2.02142895318517E-04  1.39275909943380E-01
 cg2d: Sum(rhs),rhsMax =  -2.02571108777757E-04  1.39275505467614E-01
 cg2d: Sum(rhs),rhsMax =  -2.03000478466950E-04  1.39275095386932E-01
 cg2d: Sum(rhs),rhsMax =  -2.03431011568433E-04  1.39274679701286E-01
 cg2d: Sum(rhs),rhsMax =  -2.03862715873647E-04  1.39274258410707E-01
 cg2d: Sum(rhs),rhsMax =  -2.04295599750118E-04  1.39273831515246E-01
 cg2d: Sum(rhs),rhsMax =  -2.04729672068135E-04  1.39273399014966E-01
 cg2d: Sum(rhs),rhsMax =  -2.05164941745247E-04  1.39272960909922E-01
 cg2d: Sum(rhs),rhsMax =  -2.05601418096941E-04  1.39272517200164E-01
 cg2d: Sum(rhs),rhsMax =  -2.06039110254819E-04  1.39272067885745E-01
 cg2d: Sum(rhs),rhsMax =  -2.06478027534283E-04  1.39271612966728E-01
 cg2d: Sum(rhs),rhsMax =  -2.06918179502921E-04  1.39271152443189E-01
 cg2d: Sum(rhs),rhsMax =  -2.07359575881709E-04  1.39270686315228E-01
 cg2d: Sum(rhs),rhsMax =  -2.07802226476293E-04  1.39270214582970E-01
 cg2d: Sum(rhs),rhsMax =  -2.08246141468445E-04  1.39269737246563E-01
 cg2d: Sum(rhs),rhsMax =  -2.08691330997637E-04  1.39269254306178E-01
 cg2d: Sum(rhs),rhsMax =  -2.09137805581331E-04  1.39268765762011E-01
 cg2d: Sum(rhs),rhsMax =  -2.09585575798872E-04  1.39268271614276E-01
 cg2d: Sum(rhs),rhsMax =  -2.10034652384657E-04  1.39267771863203E-01
 cg2d: Sum(rhs),rhsMax =  -2.10485046184363E-04  1.39267266509039E-01
 cg2d: Sum(rhs),rhsMax =  -2.10936768350713E-04  1.39266755552046E-01
 cg2d: Sum(rhs),rhsMax =  -2.11389829940876E-04  1.39266238992502E-01
 cg2d: Sum(rhs),rhsMax =  -2.11844242391854E-04  1.39265716830703E-01
 cg2d: Sum(rhs),rhsMax =  -2.12300017201819E-04  1.39265189066963E-01
 cg2d: Sum(rhs),rhsMax =  -2.12757165957390E-04  1.39264655701615E-01
 cg2d: Sum(rhs),rhsMax =  -2.13215700410502E-04  1.39264116735012E-01
 cg2d: Sum(rhs),rhsMax =  -2.13675632574913E-04  1.39263572167526E-01
 cg2d: Sum(rhs),rhsMax =  -2.14136974278824E-04  1.39263021999548E-01
 cg2d: Sum(rhs),rhsMax =  -2.14599737845727E-04  1.39262466231486E-01
 cg2d: Sum(rhs),rhsMax =  -2.15063935353873E-04  1.39261904863770E-01
 cg2d: Sum(rhs),rhsMax =  -2.15529579270658E-04  1.39261337896844E-01
 cg2d: Sum(rhs),rhsMax =  -2.15996681964623E-04  1.39260765331171E-01
 cg2d: Sum(rhs),rhsMax =  -2.16465256142176E-04  1.39260187167234E-01
 cg2d: Sum(rhs),rhsMax =  -2.16935314347615E-04  1.39259603405531E-01
 cg2d: Sum(rhs),rhsMax =  -2.17406869391208E-04  1.39259014046581E-01
 cg2d: Sum(rhs),rhsMax =  -2.17879934061761E-04  1.39258419090920E-01
 cg2d: Sum(rhs),rhsMax =  -2.18354521272448E-04  1.39257818539103E-01
 cg2d: Sum(rhs),rhsMax =  -2.18830644031167E-04  1.39257212391701E-01
 cg2d: Sum(rhs),rhsMax =  -2.19308315389958E-04  1.39256600649309E-01
 cg2d: Sum(rhs),rhsMax =  -2.19787548483660E-04  1.39255983312535E-01
 cg2d: Sum(rhs),rhsMax =  -2.20268356387917E-04  1.39255360382009E-01
 cg2d: Sum(rhs),rhsMax =  -2.20750752407452E-04  1.39254731858375E-01
 cg2d: Sum(rhs),rhsMax =  -2.21234749760817E-04  1.39254097742299E-01
 cg2d: Sum(rhs),rhsMax =  -2.21720361762569E-04  1.39253458034464E-01
 cg2d: Sum(rhs),rhsMax =  -2.22207601763445E-04  1.39252812735572E-01
 cg2d: Sum(rhs),rhsMax =  -2.22696482998154E-04  1.39252161846341E-01
 cg2d: Sum(rhs),rhsMax =  -2.23187018963045E-04  1.39251505367510E-01
 cg2d: Sum(rhs),rhsMax =  -2.23679223094559E-04  1.39250843299833E-01
 cg2d: Sum(rhs),rhsMax =  -2.24173108561439E-04  1.39250175644089E-01
 cg2d: Sum(rhs),rhsMax =  -2.24668688995578E-04  1.39249502401066E-01
 cg2d: Sum(rhs),rhsMax =  -2.25165977569833E-04  1.39248823571578E-01
 cg2d: Sum(rhs),rhsMax =  -2.25664987850178E-04  1.39248139156453E-01
 cg2d: Sum(rhs),rhsMax =  -2.26165733104943E-04  1.39247449156538E-01
 cg2d: Sum(rhs),rhsMax =  -2.26668226662170E-04  1.39246753572702E-01
 cg2d: Sum(rhs),rhsMax =  -2.27172481991802E-04  1.39246052405825E-01
 cg2d: Sum(rhs),rhsMax =  -2.27678512144619E-04  1.39245345656811E-01
 cg2d: Sum(rhs),rhsMax =  -2.28186330424671E-04  1.39244633326582E-01
 cg2d: Sum(rhs),rhsMax =  -2.28695950033195E-04  1.39243915416075E-01
 cg2d: Sum(rhs),rhsMax =  -2.29207384141420E-04  1.39243191926249E-01
 cg2d: Sum(rhs),rhsMax =  -2.29720645787213E-04  1.39242462858078E-01
 cg2d: Sum(rhs),rhsMax =  -2.30235747908374E-04  1.39241728212555E-01
 cg2d: Sum(rhs),rhsMax =  -2.30752703570936E-04  1.39240987990694E-01
 cg2d: Sum(rhs),rhsMax =  -2.31271525568227E-04  1.39240242193524E-01
 cg2d: Sum(rhs),rhsMax =  -2.31792226593613E-04  1.39239490822093E-01
 cg2d: Sum(rhs),rhsMax =  -2.32314819594593E-04  1.39238733877468E-01
 cg2d: Sum(rhs),rhsMax =  -2.32839316954579E-04  1.39237971360735E-01
 cg2d: Sum(rhs),rhsMax =  -2.33365731292652E-04  1.39237203272995E-01
 cg2d: Sum(rhs),rhsMax =  -2.33894074975641E-04  1.39236429615371E-01
 cg2d: Sum(rhs),rhsMax =  -2.34424360309501E-04  1.39235650389002E-01
 cg2d: Sum(rhs),rhsMax =  -2.34956599501387E-04  1.39234865595045E-01
 cg2d: Sum(rhs),rhsMax =  -2.35490804538537E-04  1.39234075234678E-01
(PID.TID 0000.0001)      cg2d_init_res =   5.57039199619864E-04
(PID.TID 0000.0001)      cg2d_iters(min,last) =      -1      71
(PID.TID 0000.0001)      cg2d_last_res =   9.98374548205440E-08
(PID.TID 0000.0001) // =======================================================
(PID.TID 0000.0001) // Begin MONITOR dynamic field statistics
(PID.TID 0000.0001) // =======================================================
(PID.TID 0000.0001) %MON time_tsnumber                =                 17928
(PID.TID 0000.0001) %MON time_secondsf                =   2.1513600000000E+07
(PID.TID 0000.0001) %MON dynstat_eta_max              =   4.8519158020268E-02
(PID.TID 0000.0001) %MON dynstat_eta_min              =  -2.0222909465194E-02
(PID.TID 0000.0001) %MON dynstat_eta_mean             =   1.6431405732871E-07
(PID.TID 0000.0001) %MON dynstat_eta_sd               =   1.7829205924796E-02
(PID.TID 0000.0001) %MON dynstat_eta_del2             =   1.7784865586982E-05
(PID.TID 0000.0001) %MON dynstat_uvel_max             =   3.1197022244590E-02
(PID.TID 0000.0001) %MON dynstat_uvel_min             =  -1.6046106236572E-02
(PID.TID 0000.0001) %MON dynstat_uvel_mean            =   4.1222362441033E-08
(PID.TID 0000.0001) %MON dynstat_uvel_sd              =   6.5965847114006E-03
(PID.TID 0000.0001) %MON dynstat_uvel_del2            =   7.8648532512433E-06
(PID.TID 0000.0001) %MON dynstat_vvel_max             =   8.3650128246866E-02
(PID.TID 0000.0001) %MON dynstat_vvel_min             =  -3.1064534216221E-02
(PID.TID 0000.0001) %MON dynstat_vvel_mean            =   1.3201024975291E-08
(PID.TID 0000.0001) %MON dynstat_vvel_sd              =   1.4806056334286E-02
(PID.TID 0000.0001) %MON dynstat_vvel_del2            =   7.4668159603478E-05
(PID.TID 0000.0001) %MON dynstat_wvel_max             =   5.6276166155567E-09
(PID.TID 0000.0001) %MON dynstat_wvel_min             =  -9.5336238585878E-09
(PID.TID 0000.0001) %MON dynstat_wvel_mean            =   8.8280507447457E-22
(PID.TID 0000.0001) %MON dynstat_wvel_sd              =   3.4620050448979E-09
(PID.TID 0000.0001) %MON dynstat_wvel_del2            =   1.1560661349740E-12
(PID.TID 0000.0001) %MON dynstat_theta_max            =   2.0000000000000E+01
(PID.TID 0000.0001) %MON dynstat_theta_min            =   2.0000000000000E+01
(PID.TID 0000.0001) %MON dynstat_theta_mean           =   2.0000000000000E+01
(PID.TID 0000.0001) %MON dynstat_theta_sd             =   0.0000000000000E+00
(PID.TID 0000.0001) %MON dynstat_theta_del2           =   0.0000000000000E+00
(PID.TID 0000.0001) %MON dynstat_salt_max             =   3.0000000000000E+01
(PID.TID 0000.0001) %MON dynstat_salt_min             =   3.0000000000000E+01
(PID.TID 0000.0001) %MON dynstat_salt_mean            =   3.0000000000000E+01
(PID.TID 0000.0001) %MON dynstat_salt_sd              =   0.0000000000000E+00
(PID.TID 0000.0001) %MON dynstat_salt_del2            =   0.0000000000000E+00
(PID.TID 0000.0001) %MON trAdv_CFL_u_max              =   1.8718317794922E-03
(PID.TID 0000.0001) %MON trAdv_CFL_v_max              =   5.0190069316998E-03
(PID.TID 0000.0001) %MON trAdv_CFL_w_max              =   1.3493367362324E-09
(PID.TID 0000.0001) %MON advcfl_uvel_max              =   1.8718213346754E-03
(PID.TID 0000.0001) %MON advcfl_vvel_max              =   5.0190076948119E-03
(PID.TID 0000.0001) %MON advcfl_wvel_max              =   4.5761394521222E-09
(PID.TID 0000.0001) %MON advcfl_W_hf_max              =   0.0000000000000E+00
(PID.TID 0000.0001) %MON pe_b_mean                    =   3.1184085284101E-07
(PID.TID 0000.0001) %MON ke_max                       =   3.4981646370861E-03
(PID.TID 0000.0001) %MON ke_mean                      =   1.2917766506504E-04
(PID.TID 0000.0001) %MON ke_vol                       =   7.2000000000000E+15
(PID.TID 0000.0001) %MON vort_r_min                   =  -1.4668690430204E-06
(PID.TID 0000.0001) %MON vort_r_max                   =   2.3048313543867E-06
(PID.TID 0000.0001) %MON vort_a_mean                  =   1.0600000000000E-04
(PID.TID 0000.0001) %MON vort_a_sd                    =   3.5368004306831E-06
(PID.TID 0000.0001) %MON vort_p_mean                  =   1.1130000000000E-04
(PID.TID 0000.0001) %MON vort_p_sd                    =   4.1150632879467E-05
(PID.TID 0000.0001) %MON surfExpan_theta_mean         =   1.7652407930452E-20
(PID.TID 0000.0001) %MON surfExpan_salt_mean          =   2.6478611895679E-20
(PID.TID 0000.0001) // =======================================================
(PID.TID 0000.0001) // End MONITOR dynamic field statistics
(PID.TID 0000.0001) // =======================================================
 cg2d: Sum(rhs),rhsMax =  -2.36026987443206E-04  1.39233279309093E-01
 cg2d: Sum(rhs),rhsMax =  -2.36565160050648E-04  1.39232477819504E-01
 cg2d: Sum(rhs),rhsMax =  -2.37105334056451E-04  1.39231670767141E-01
 cg2d: Sum(rhs),rhsMax =  -2.37647521003787E-04  1.39230858153253E-01
 cg2d: Sum(rhs),rhsMax =  -2.38191732367120E-04  1.39230039979106E-01
 cg2d: Sum(rhs),rhsMax =  -2.38674649145166E-04  1.39229216549619E-01
 cg2d: Sum(rhs),rhsMax =  -2.39159504227278E-04  1.39228387277361E-01
 cg2d: Sum(rhs),rhsMax =  -2.39646258718393E-04  1.39227552435107E-01
 cg2d: Sum(rhs),rhsMax =  -2.40134951548701E-04  1.39226712036182E-01
 cg2d: Sum(rhs),rhsMax =  -2.40625601523829E-04  1.39225866083478E-01
 cg2d: Sum(rhs),rhsMax =  -2.41118218927529E-04  1.39225014578291E-01
 cg2d: Sum(rhs),rhsMax =  -2.41612809294823E-04  1.39224157521874E-01
 cg2d: Sum(rhs),rhsMax =  -2.42109377744623E-04  1.39223294915713E-01
 cg2d: Sum(rhs),rhsMax =  -2.42607930422451E-04  1.39222426761415E-01
 cg2d: Sum(rhs),rhsMax =  -2.43108475311869E-04  1.39221553060579E-01
 cg2d: Sum(rhs),rhsMax =  -2.43611021280124E-04  1.39220673814745E-01
 cg2d: Sum(rhs),rhsMax =  -2.44115577332739E-04  1.39219789025401E-01
 cg2d: Sum(rhs),rhsMax =  -2.44622151775965E-04  1.39218898694014E-01
 cg2d: Sum(rhs),rhsMax =  -2.45130752642375E-04  1.39218002822059E-01
 cg2d: Sum(rhs),rhsMax =  -2.45641387092443E-04  1.39217101411038E-01
 cg2d: Sum(rhs),rhsMax =  -2.46154062549984E-04  1.39216194462490E-01
 cg2d: Sum(rhs),rhsMax =  -2.46668785849156E-04  1.39215281977985E-01
 cg2d: Sum(rhs),rhsMax =  -2.47185564075581E-04  1.39214363959119E-01
 cg2d: Sum(rhs),rhsMax =  -2.47704404149188E-04  1.39213440407510E-01
 cg2d: Sum(rhs),rhsMax =  -2.48225312941324E-04  1.39212511324798E-01
 cg2d: Sum(rhs),rhsMax =  -2.48748297089514E-04  1.39211576712638E-01
 cg2d: Sum(rhs),rhsMax =  -2.49273362939783E-04  1.39210636572703E-01
 cg2d: Sum(rhs),rhsMax =  -2.49800516800098E-04  1.39209690906682E-01
 cg2d: Sum(rhs),rhsMax =  -2.50329764685089E-04  1.39208739716278E-01
 cg2d: Sum(rhs),rhsMax =  -2.50861112461318E-04  1.39207783003208E-01
 cg2d: Sum(rhs),rhsMax =  -2.51394565924717E-04  1.39206820769207E-01
 cg2d: Sum(rhs),rhsMax =  -2.51930130736986E-04  1.39205853016029E-01
 cg2d: Sum(rhs),rhsMax =  -2.52467812202489E-04  1.39204879745444E-01
 cg2d: Sum(rhs),rhsMax =  -2.53007615668053E-04  1.39203900959247E-01
 cg2d: Sum(rhs),rhsMax =  -2.53549546121472E-04  1.39202916659246E-01
 cg2d: Sum(rhs),rhsMax =  -2.54093608540020E-04  1.39201926847273E-01
 cg2d: Sum(rhs),rhsMax =  -2.54639807677174E-04  1.39200931525176E-01
 cg2d: Sum(rhs),rhsMax =  -2.55188147948913E-04  1.39199930694822E-01
 cg2d: Sum(rhs),rhsMax =  -2.55738633944684E-04  1.39198924358094E-01
 cg2d: Sum(rhs),rhsMax =  -2.56291269802093E-04  1.39197912516892E-01
 cg2d: Sum(rhs),rhsMax =  -2.56846059605892E-04  1.39196895173136E-01
 cg2d: Sum(rhs),rhsMax =  -2.57403007344417E-04  1.39195872328762E-01
 cg2d: Sum(rhs),rhsMax =  -2.57962116706698E-04  1.39194843985725E-01
 cg2d: Sum(rhs),rhsMax =  -2.58523391228420E-04  1.39193810145996E-01
 cg2d: Sum(rhs),rhsMax =  -2.59086834439048E-04  1.39192770811567E-01
 cg2d: Sum(rhs),rhsMax =  -2.59652449486092E-04  1.39191725984447E-01
 cg2d: Sum(rhs),rhsMax =  -2.60220239451716E-04  1.39190675666662E-01
 cg2d: Sum(rhs),rhsMax =  -2.60790207332080E-04  1.39189619860259E-01
 cg2d: Sum(rhs),rhsMax =  -2.61362355975875E-04  1.39188558567300E-01
 cg2d: Sum(rhs),rhsMax =  -2.61936687832531E-04  1.39187491789865E-01
 cg2d: Sum(rhs),rhsMax =  -2.62513205293027E-04  1.39186419530055E-01
 cg2d: Sum(rhs),rhsMax =  -2.63091910894602E-04  1.39185341789984E-01
 cg2d: Sum(rhs),rhsMax =  -2.63672806543333E-04  1.39184258571788E-01
 cg2d: Sum(rhs),rhsMax =  -2.64255894334328E-04  1.39183169877620E-01
 cg2d: Sum(rhs),rhsMax =  -2.64841176093668E-04  1.39182075709649E-01
 cg2d: Sum(rhs),rhsMax =  -2.65428653444010E-04  1.39180976070065E-01
 cg2d: Sum(rhs),rhsMax =  -2.66018327986025E-04  1.39179870961073E-01
 cg2d: Sum(rhs),rhsMax =  -2.66610201060098E-04  1.39178760384898E-01
 cg2d: Sum(rhs),rhsMax =  -2.67204273916967E-04  1.39177644343781E-01
 cg2d: Sum(rhs),rhsMax =  -2.67800547532987E-04  1.39176522839983E-01
 cg2d: Sum(rhs),rhsMax =  -2.68399022970305E-04  1.39175395875781E-01
 cg2d: Sum(rhs),rhsMax =  -2.68999700957949E-04  1.39174263453472E-01
 cg2d: Sum(rhs),rhsMax =  -2.69602582122381E-04  1.39173125575369E-01
 cg2d: Sum(rhs),rhsMax =  -2.70207667013941E-04  1.39171982243803E-01
 cg2d: Sum(rhs),rhsMax =  -2.70814955946636E-04  1.39170833461124E-01
 cg2d: Sum(rhs),rhsMax =  -2.71424449174181E-04  1.39169679229699E-01
 cg2d: Sum(rhs),rhsMax =  -2.72036146754861E-04  1.39168519551912E-01
 cg2d: Sum(rhs),rhsMax =  -2.72650048689390E-04  1.39167354430166E-01
 cg2d: Sum(rhs),rhsMax =  -2.73266154733675E-04  1.39166183866883E-01
 cg2d: Sum(rhs),rhsMax =  -2.73884464640646E-04  1.39165007864500E-01
 cg2d: Sum(rhs),rhsMax =  -2.74504977972198E-04  1.39163826425474E-01
 cg2d: Sum(rhs),rhsMax =  -2.75127694073058E-04  1.39162639552279E-01
(PID.TID 0000.0001)      cg2d_init_res =   5.56600844768379E-04
(PID.TID 0000.0001)      cg2d_iters(min,last) =      -1      72
(PID.TID 0000.0001)      cg2d_last_res =   8.09995685791981E-08
(PID.TID 0000.0001) // =======================================================
(PID.TID 0000.0001) // Begin MONITOR dynamic field statistics
(PID.TID 0000.0001) // =======================================================
(PID.TID 0000.0001) %MON time_tsnumber                =                 18000
(PID.TID 0000.0001) %MON time_secondsf                =   2.1600000000000E+07
(PID.TID 0000.0001) %MON dynstat_eta_max              =   4.8697292118529E-02
(PID.TID 0000.0001) %MON dynstat_eta_min              =  -2.0034697244633E-02
(PID.TID 0000.0001) %MON dynstat_eta_mean             =   1.9187066310003E-07
(PID.TID 0000.0001) %MON dynstat_eta_sd               =   1.7711650541284E-02
(PID.TID 0000.0001) %MON dynstat_eta_del2             =   1.7788040334209E-05
(PID.TID 0000.0001) %MON dynstat_uvel_max             =   3.1181719054205E-02
(PID.TID 0000.0001) %MON dynstat_uvel_min             =  -1.6022796375406E-02
(PID.TID 0000.0001) %MON dynstat_uvel_mean            =   5.6931296206345E-08
(PID.TID 0000.0001) %MON dynstat_uvel_sd              =   6.5468030472041E-03
(PID.TID 0000.0001) %MON dynstat_uvel_del2            =   7.8362049084706E-06
(PID.TID 0000.0001) %MON dynstat_vvel_max             =   8.3642106623366E-02
(PID.TID 0000.0001) %MON dynstat_vvel_min             =  -3.1121600880586E-02
(PID.TID 0000.0001) %MON dynstat_vvel_mean            =   1.2570035137537E-08
(PID.TID 0000.0001) %MON dynstat_vvel_sd              =   1.4799892098733E-02
(PID.TID 0000.0001) %MON dynstat_vvel_del2            =   7.4682303380125E-05
(PID.TID 0000.0001) %MON dynstat_wvel_max             =   5.9954035814303E-09
(PID.TID 0000.0001) %MON dynstat_wvel_min             =  -9.3710345029831E-09
(PID.TID 0000.0001) %MON dynstat_wvel_mean            =  -3.6467993898744E-21
(PID.TID 0000.0001) %MON dynstat_wvel_sd              =   3.4590143137638E-09
(PID.TID 0000.0001) %MON dynstat_wvel_del2            =   1.1453632374481E-12
(PID.TID 0000.0001) %MON dynstat_theta_max            =   2.0000000000000E+01
(PID.TID 0000.0001) %MON dynstat_theta_min            =   2.0000000000000E+01
(PID.TID 0000.0001) %MON dynstat_theta_mean           =   2.0000000000000E+01
(PID.TID 0000.0001) %MON dynstat_theta_sd             =   0.0000000000000E+00
(PID.TID 0000.0001) %MON dynstat_theta_del2           =   0.0000000000000E+00
(PID.TID 0000.0001) %MON dynstat_salt_max             =   3.0000000000000E+01
(PID.TID 0000.0001) %MON dynstat_salt_min             =   3.0000000000000E+01
(PID.TID 0000.0001) %MON dynstat_salt_mean            =   3.0000000000000E+01
(PID.TID 0000.0001) %MON dynstat_salt_sd              =   0.0000000000000E+00
(PID.TID 0000.0001) %MON dynstat_salt_del2            =   0.0000000000000E+00
(PID.TID 0000.0001) %MON trAdv_CFL_u_max              =   1.8709181386661E-03
(PID.TID 0000.0001) %MON trAdv_CFL_v_max              =   5.0185403220169E-03
(PID.TID 0000.0001) %MON trAdv_CFL_w_max              =   1.4377524632622E-09
(PID.TID 0000.0001) %MON advcfl_uvel_max              =   1.8709031432523E-03
(PID.TID 0000.0001) %MON advcfl_vvel_max              =   5.0185263974020E-03
(PID.TID 0000.0001) %MON advcfl_wvel_max              =   4.4980965614319E-09
(PID.TID 0000.0001) %MON advcfl_W_hf_max              =   0.0000000000000E+00
(PID.TID 0000.0001) %MON pe_b_mean                    =   3.0774221619965E-07
(PID.TID 0000.0001) %MON ke_max                       =   3.4970021544442E-03
(PID.TID 0000.0001) %MON ke_mean                      =   1.2876623950257E-04
(PID.TID 0000.0001) %MON ke_vol                       =   7.2000000000000E+15
(PID.TID 0000.0001) %MON vort_r_min                   =  -1.4663340079112E-06
(PID.TID 0000.0001) %MON vort_r_max                   =   2.3034851455510E-06
(PID.TID 0000.0001) %MON vort_a_mean                  =   1.0600000000000E-04
(PID.TID 0000.0001) %MON vort_a_sd                    =   3.5367921522740E-06
(PID.TID 0000.0001) %MON vort_p_mean                  =   1.1130000000000E-04
(PID.TID 0000.0001) %MON vort_p_sd                    =   4.1150602857783E-05
(PID.TID 0000.0001) %MON surfExpan_theta_mean         =  -7.2940843488646E-20
(PID.TID 0000.0001) %MON surfExpan_salt_mean          =  -1.0940937045234E-19
(PID.TID 0000.0001) // =======================================================
(PID.TID 0000.0001) // End MONITOR dynamic field statistics
(PID.TID 0000.0001) // =======================================================
 cg2d: Sum(rhs),rhsMax =  -2.75752612377580E-04  1.39161447247406E-01
 cg2d: Sum(rhs),rhsMax =  -2.76379731966920E-04  1.39160249513366E-01
 cg2d: Sum(rhs),rhsMax =  -2.77009051843451E-04  1.39159046352684E-01
 cg2d: Sum(rhs),rhsMax =  -2.77640570936592E-04  1.39157837767907E-01
 cg2d: Sum(rhs),rhsMax =  -2.78274288254986E-04  1.39156623761599E-01
 cg2d: Sum(rhs),rhsMax =  -2.78910202229267E-04  1.39155404336338E-01
 cg2d: Sum(rhs),rhsMax =  -2.79548311529908E-04  1.39154179494723E-01
 cg2d: Sum(rhs),rhsMax =  -2.80188614639633E-04  1.39152949239371E-01
 cg2d: Sum(rhs),rhsMax =  -2.80831109769132E-04  1.39151713572916E-01
 cg2d: Sum(rhs),rhsMax =  -2.81475795280087E-04  1.39150472498009E-01
 cg2d: Sum(rhs),rhsMax =  -2.82122669299854E-04  1.39149226017319E-01
 cg2d: Sum(rhs),rhsMax =  -2.82771729689477E-04  1.39147974133532E-01
 cg2d: Sum(rhs),rhsMax =  -2.83422974377500E-04  1.39146716849355E-01
 cg2d: Sum(rhs),rhsMax =  -2.84076401206491E-04  1.39145454167509E-01
 cg2d: Sum(rhs),rhsMax =  -2.84732007822527E-04  1.39144186090733E-01
 cg2d: Sum(rhs),rhsMax =  -2.85389791838220E-04  1.39142912621787E-01
 cg2d: Sum(rhs),rhsMax =  -2.86049750698390E-04  1.39141633763444E-01
 cg2d: Sum(rhs),rhsMax =  -2.86711881587652E-04  1.39140349518499E-01
 cg2d: Sum(rhs),rhsMax =  -2.87376182115781E-04  1.39139059889761E-01
 cg2d: Sum(rhs),rhsMax =  -2.88042649185262E-04  1.39137764880059E-01
 cg2d: Sum(rhs),rhsMax =  -2.88711279942374E-04  1.39136464492238E-01
 cg2d: Sum(rhs),rhsMax =  -2.89382071437548E-04  1.39135158729163E-01
 cg2d: Sum(rhs),rhsMax =  -2.90055020506252E-04  1.39133847593713E-01
 cg2d: Sum(rhs),rhsMax =  -2.90730123854781E-04  1.39132531088788E-01
 cg2d: Sum(rhs),rhsMax =  -2.91407378332058E-04  1.39131209217305E-01
 cg2d: Sum(rhs),rhsMax =  -2.92086780410830E-04  1.39129881982196E-01
 cg2d: Sum(rhs),rhsMax =  -2.92768326657014E-04  1.39128549386414E-01
 cg2d: Sum(rhs),rhsMax =  -2.93452013491883E-04  1.39127211432926E-01
 cg2d: Sum(rhs),rhsMax =  -2.94137837287309E-04  1.39125868124720E-01
 cg2d: Sum(rhs),rhsMax =  -2.94825794348036E-04  1.39124519464800E-01
 cg2d: Sum(rhs),rhsMax =  -2.95515880785553E-04  1.39123165456187E-01
 cg2d: Sum(rhs),rhsMax =  -2.96208092663403E-04  1.39121806101921E-01
 cg2d: Sum(rhs),rhsMax =  -2.96902425988569E-04  1.39120441405058E-01
 cg2d: Sum(rhs),rhsMax =  -2.97598876706430E-04  1.39119071368671E-01
 cg2d: Sum(rhs),rhsMax =  -2.98297440755045E-04  1.39117695995853E-01
 cg2d: Sum(rhs),rhsMax =  -2.98998113847421E-04  1.39116315289713E-01
 cg2d: Sum(rhs),rhsMax =  -2.99700891676471E-04  1.39114929253377E-01
 cg2d: Sum(rhs),rhsMax =  -3.00405769895306E-04  1.39113537889989E-01
 cg2d: Sum(rhs),rhsMax =  -3.01112743955433E-04  1.39112141202711E-01
 cg2d: Sum(rhs),rhsMax =  -3.01821809462293E-04  1.39110739194723E-01
 cg2d: Sum(rhs),rhsMax =  -3.02532961714930E-04  1.39109331869218E-01
 cg2d: Sum(rhs),rhsMax =  -3.03246196021338E-04  1.39107919229413E-01
 cg2d: Sum(rhs),rhsMax =  -3.03961507883610E-04  1.39106501278537E-01
 cg2d: Sum(rhs),rhsMax =  -3.04678892227575E-04  1.39105078019840E-01
 cg2d: Sum(rhs),rhsMax =  -3.05398344349069E-04  1.39103649456588E-01
 cg2d: Sum(rhs),rhsMax =  -3.06119859182798E-04  1.39102215592064E-01
 cg2d: Sum(rhs),rhsMax =  -3.06843431784833E-04  1.39100776429568E-01
 cg2d: Sum(rhs),rhsMax =  -3.07569057013628E-04  1.39099331972420E-01
 cg2d: Sum(rhs),rhsMax =  -3.08296729846567E-04  1.39097882223953E-01
 cg2d: Sum(rhs),rhsMax =  -3.09026445031157E-04  1.39096427187522E-01
 cg2d: Sum(rhs),rhsMax =  -3.09758197209682E-04  1.39094966866497E-01
 cg2d: Sum(rhs),rhsMax =  -3.10491981251285E-04  1.39093501264264E-01
 cg2d: Sum(rhs),rhsMax =  -3.11227791585708E-04  1.39092030384229E-01
 cg2d: Sum(rhs),rhsMax =  -3.11965622883281E-04  1.39090554229814E-01
 cg2d: Sum(rhs),rhsMax =  -3.12705469553677E-04  1.39089072804459E-01
 cg2d: Sum(rhs),rhsMax =  -3.13447326097069E-04  1.39087586111619E-01
 cg2d: Sum(rhs),rhsMax =  -3.14191186879302E-04  1.39086094154769E-01
 cg2d: Sum(rhs),rhsMax =  -3.14937046183531E-04  1.39084596937401E-01
 cg2d: Sum(rhs),rhsMax =  -3.15684898326893E-04  1.39083094463022E-01
 cg2d: Sum(rhs),rhsMax =  -3.16434737518412E-04  1.39081586735158E-01
 cg2d: Sum(rhs),rhsMax =  -3.17186557864810E-04  1.39080073757354E-01
 cg2d: Sum(rhs),rhsMax =  -3.17940353517907E-04  1.39078555533168E-01
 cg2d: Sum(rhs),rhsMax =  -3.18696118591165E-04  1.39077032066178E-01
 cg2d: Sum(rhs),rhsMax =  -3.19453846900092E-04  1.39075503359978E-01
 cg2d: Sum(rhs),rhsMax =  -3.20213532635661E-04  1.39073969418182E-01
 cg2d: Sum(rhs),rhsMax =  -3.20975169509087E-04  1.39072430244416E-01
 cg2d: Sum(rhs),rhsMax =  -3.21738751418176E-04  1.39070885842329E-01
 cg2d: Sum(rhs),rhsMax =  -3.22504272163688E-04  1.39069336215583E-01
 cg2d: Sum(rhs),rhsMax =  -3.23271725642621E-04  1.39067781367858E-01
 cg2d: Sum(rhs),rhsMax =  -3.24041105282946E-04  1.39066221302852E-01
 cg2d: Sum(rhs),rhsMax =  -3.24812404940510E-04  1.39064656024279E-01
 cg2d: Sum(rhs),rhsMax =  -3.25585618085539E-04  1.39063085535873E-01
(PID.TID 0000.0001)      cg2d_init_res =   5.56156390030675E-04
(PID.TID 0000.0001)      cg2d_iters(min,last) =      -1      72
(PID.TID 0000.0001)      cg2d_last_res =   8.65558690750431E-08
(PID.TID 0000.0001) // =======================================================
(PID.TID 0000.0001) // Begin MONITOR dynamic field statistics
(PID.TID 0000.0001) // =======================================================
(PID.TID 0000.0001) %MON time_tsnumber                =                 18072
(PID.TID 0000.0001) %MON time_secondsf                =   2.1686400000000E+07
(PID.TID 0000.0001) %MON dynstat_eta_max              =   4.8844967133358E-02
(PID.TID 0000.0001) %MON dynstat_eta_min              =  -1.9856187822337E-02
(PID.TID 0000.0001) %MON dynstat_eta_mean             =   2.2692108515864E-07
(PID.TID 0000.0001) %MON dynstat_eta_sd               =   1.7580001373465E-02
(PID.TID 0000.0001) %MON dynstat_eta_del2             =   1.7790364971790E-05
(PID.TID 0000.0001) %MON dynstat_uvel_max             =   3.1160977605903E-02
(PID.TID 0000.0001) %MON dynstat_uvel_min             =  -1.5993443057894E-02
(PID.TID 0000.0001) %MON dynstat_uvel_mean            =   7.1864229305786E-08
(PID.TID 0000.0001) %MON dynstat_uvel_sd              =   6.4961946826986E-03
(PID.TID 0000.0001) %MON dynstat_uvel_del2            =   7.8071027191032E-06
(PID.TID 0000.0001) %MON dynstat_vvel_max             =   8.3616524248112E-02
(PID.TID 0000.0001) %MON dynstat_vvel_min             =  -3.1184125136560E-02
(PID.TID 0000.0001) %MON dynstat_vvel_mean            =   1.1816470015347E-08
(PID.TID 0000.0001) %MON dynstat_vvel_sd              =   1.4790368664622E-02
(PID.TID 0000.0001) %MON dynstat_vvel_del2            =   7.4686079179542E-05
(PID.TID 0000.0001) %MON dynstat_wvel_max             =   6.3621169883481E-09
(PID.TID 0000.0001) %MON dynstat_wvel_min             =  -9.2010386442416E-09
(PID.TID 0000.0001) %MON dynstat_wvel_mean            =  -1.1372199853415E-21
(PID.TID 0000.0001) %MON dynstat_wvel_sd              =   3.4574687132756E-09
(PID.TID 0000.0001) %MON dynstat_wvel_del2            =   1.1405336403036E-12
(PID.TID 0000.0001) %MON dynstat_theta_max            =   2.0000000000000E+01
(PID.TID 0000.0001) %MON dynstat_theta_min            =   2.0000000000000E+01
(PID.TID 0000.0001) %MON dynstat_theta_mean           =   2.0000000000000E+01
(PID.TID 0000.0001) %MON dynstat_theta_sd             =   0.0000000000000E+00
(PID.TID 0000.0001) %MON dynstat_theta_del2           =   0.0000000000000E+00
(PID.TID 0000.0001) %MON dynstat_salt_max             =   3.0000000000000E+01
(PID.TID 0000.0001) %MON dynstat_salt_min             =   3.0000000000000E+01
(PID.TID 0000.0001) %MON dynstat_salt_mean            =   3.0000000000000E+01
(PID.TID 0000.0001) %MON dynstat_salt_sd              =   0.0000000000000E+00
(PID.TID 0000.0001) %MON dynstat_salt_del2            =   0.0000000000000E+00
(PID.TID 0000.0001) %MON trAdv_CFL_u_max              =   1.8696781529278E-03
(PID.TID 0000.0001) %MON trAdv_CFL_v_max              =   5.0170199206862E-03
(PID.TID 0000.0001) %MON trAdv_CFL_w_max              =   1.5256790185529E-09
(PID.TID 0000.0001) %MON advcfl_uvel_max              =   1.8696586563542E-03
(PID.TID 0000.0001) %MON advcfl_vvel_max              =   5.0169914548867E-03
(PID.TID 0000.0001) %MON advcfl_wvel_max              =   4.4164985492360E-09
(PID.TID 0000.0001) %MON advcfl_W_hf_max              =   0.0000000000000E+00
(PID.TID 0000.0001) %MON pe_b_mean                    =   3.0318437582402E-07
(PID.TID 0000.0001) %MON ke_max                       =   3.4943987473845E-03
(PID.TID 0000.0001) %MON ke_mean                      =   1.2830314570983E-04
(PID.TID 0000.0001) %MON ke_vol                       =   7.2000000000000E+15
(PID.TID 0000.0001) %MON vort_r_min                   =  -1.4658944130647E-06
(PID.TID 0000.0001) %MON vort_r_max                   =   2.3016115625061E-06
(PID.TID 0000.0001) %MON vort_a_mean                  =   1.0600000000000E-04
(PID.TID 0000.0001) %MON vort_a_sd                    =   3.5367786971869E-06
(PID.TID 0000.0001) %MON vort_p_mean                  =   1.1130000000000E-04
(PID.TID 0000.0001) %MON vort_p_sd                    =   4.1150577309453E-05
(PID.TID 0000.0001) %MON surfExpan_theta_mean         =  -2.2745894057152E-20
(PID.TID 0000.0001) %MON surfExpan_salt_mean          =  -3.4119472679271E-20
(PID.TID 0000.0001) // =======================================================
(PID.TID 0000.0001) // End MONITOR dynamic field statistics
(PID.TID 0000.0001) // =======================================================
 cg2d: Sum(rhs),rhsMax =  -3.26360738378531E-04  1.39061509841381E-01
 cg2d: Sum(rhs),rhsMax =  -3.27137759356104E-04  1.39059928944570E-01
 cg2d: Sum(rhs),rhsMax =  -3.27916674347510E-04  1.39058342849223E-01
 cg2d: Sum(rhs),rhsMax =  -3.28697476870737E-04  1.39056751559139E-01
 cg2d: Sum(rhs),rhsMax =  -3.29480160349347E-04  1.39055155078137E-01
 cg2d: Sum(rhs),rhsMax =  -3.30264718012573E-04  1.39053553410050E-01
 cg2d: Sum(rhs),rhsMax =  -3.31051143212299E-04  1.39051946558731E-01
 cg2d: Sum(rhs),rhsMax =  -3.31839429112144E-04  1.39050334528046E-01
 cg2d: Sum(rhs),rhsMax =  -3.32629569005539E-04  1.39048717321882E-01
 cg2d: Sum(rhs),rhsMax =  -3.33421556052897E-04  1.39047094944140E-01
 cg2d: Sum(rhs),rhsMax =  -3.34215383477444E-04  1.39045467398742E-01
 cg2d: Sum(rhs),rhsMax =  -3.35011044136626E-04  1.39043834689621E-01
 cg2d: Sum(rhs),rhsMax =  -3.35808531201296E-04  1.39042196820734E-01
 cg2d: Sum(rhs),rhsMax =  -3.36607837670214E-04  1.39040553796048E-01
 cg2d: Sum(rhs),rhsMax =  -3.37408956512575E-04  1.39038905619551E-01
 cg2d: Sum(rhs),rhsMax =  -3.38211880668941E-04  1.39037252295248E-01
 cg2d: Sum(rhs),rhsMax =  -3.39016602828668E-04  1.39035593827160E-01
 cg2d: Sum(rhs),rhsMax =  -3.39823116089902E-04  1.39033930219324E-01
 cg2d: Sum(rhs),rhsMax =  -3.40631413157920E-04  1.39032261475796E-01
 cg2d: Sum(rhs),rhsMax =  -3.41441486789045E-04  1.39030587600647E-01
 cg2d: Sum(rhs),rhsMax =  -3.42253329687416E-04  1.39028908597966E-01
 cg2d: Sum(rhs),rhsMax =  -3.43066934625103E-04  1.39027224471859E-01
 cg2d: Sum(rhs),rhsMax =  -3.43882294192598E-04  1.39025535226447E-01
 cg2d: Sum(rhs),rhsMax =  -3.44699401038808E-04  1.39023840865870E-01
 cg2d: Sum(rhs),rhsMax =  -3.45518247765271E-04  1.39022141394283E-01
 cg2d: Sum(rhs),rhsMax =  -3.46338826851401E-04  1.39020436815860E-01
 cg2d: Sum(rhs),rhsMax =  -3.47161130920221E-04  1.39018727134791E-01
 cg2d: Sum(rhs),rhsMax =  -3.47985152376031E-04  1.39017012355282E-01
 cg2d: Sum(rhs),rhsMax =  -3.48810883640297E-04  1.39015292481555E-01
 cg2d: Sum(rhs),rhsMax =  -3.49638317141879E-04  1.39013567517851E-01
 cg2d: Sum(rhs),rhsMax =  -3.50467445361866E-04  1.39011837468426E-01
 cg2d: Sum(rhs),rhsMax =  -3.51298260487192E-04  1.39010102337554E-01
 cg2d: Sum(rhs),rhsMax =  -3.52130754919818E-04  1.39008362129525E-01
 cg2d: Sum(rhs),rhsMax =  -3.52964920894363E-04  1.39006616848646E-01
 cg2d: Sum(rhs),rhsMax =  -3.53800750651943E-04  1.39004866499241E-01
 cg2d: Sum(rhs),rhsMax =  -3.54638236404884E-04  1.39003111085649E-01
 cg2d: Sum(rhs),rhsMax =  -3.55477370288057E-04  1.39001350612228E-01
 cg2d: Sum(rhs),rhsMax =  -3.56318144537167E-04  1.38999585083350E-01
 cg2d: Sum(rhs),rhsMax =  -3.57160551193367E-04  1.38997814503407E-01
 cg2d: Sum(rhs),rhsMax =  -3.58004582325855E-04  1.38996038876806E-01
 cg2d: Sum(rhs),rhsMax =  -3.58850229947100E-04  1.38994258207969E-01
 cg2d: Sum(rhs),rhsMax =  -3.59697486202725E-04  1.38992472501338E-01
 cg2d: Sum(rhs),rhsMax =  -3.60546343064532E-04  1.38990681761368E-01
 cg2d: Sum(rhs),rhsMax =  -3.61396792359617E-04  1.38988885992532E-01
 cg2d: Sum(rhs),rhsMax =  -3.62248826133737E-04  1.38987085199321E-01
 cg2d: Sum(rhs),rhsMax =  -3.63102436161472E-04  1.38985279386242E-01
 cg2d: Sum(rhs),rhsMax =  -3.63957614330176E-04  1.38983468557817E-01
 cg2d: Sum(rhs),rhsMax =  -3.64814352609109E-04  1.38981652718586E-01
 cg2d: Sum(rhs),rhsMax =  -3.65672642632002E-04  1.38979831873104E-01
 cg2d: Sum(rhs),rhsMax =  -3.66532476233610E-04  1.38978006025944E-01
 cg2d: Sum(rhs),rhsMax =  -3.67393845232594E-04  1.38976175181696E-01
 cg2d: Sum(rhs),rhsMax =  -3.68256741230765E-04  1.38974339344964E-01
 cg2d: Sum(rhs),rhsMax =  -3.69121155893101E-04  1.38972498520371E-01
 cg2d: Sum(rhs),rhsMax =  -3.69987080893563E-04  1.38970652712555E-01
 cg2d: Sum(rhs),rhsMax =  -3.70854507959911E-04  1.38968801926172E-01
 cg2d: Sum(rhs),rhsMax =  -3.71723428531013E-04  1.38966946165891E-01
 cg2d: Sum(rhs),rhsMax =  -3.72593834468056E-04  1.38965085436401E-01
 cg2d: Sum(rhs),rhsMax =  -3.73465716974658E-04  1.38963219742407E-01
 cg2d: Sum(rhs),rhsMax =  -3.74339067683023E-04  1.38961349088628E-01
 cg2d: Sum(rhs),rhsMax =  -3.75213878131195E-04  1.38959473479801E-01
 cg2d: Sum(rhs),rhsMax =  -3.76090139711278E-04  1.38957592920681E-01
 cg2d: Sum(rhs),rhsMax =  -3.76967843887776E-04  1.38955707416035E-01
 cg2d: Sum(rhs),rhsMax =  -3.77846982078108E-04  1.38953816970651E-01
 cg2d: Sum(rhs),rhsMax =  -3.78727545561136E-04  1.38951921589330E-01
 cg2d: Sum(rhs),rhsMax =  -3.79609525749494E-04  1.38950021276890E-01
 cg2d: Sum(rhs),rhsMax =  -3.80492914004663E-04  1.38948116038168E-01
 cg2d: Sum(rhs),rhsMax =  -3.81377701456300E-04  1.38946205878013E-01
 cg2d: Sum(rhs),rhsMax =  -3.82263879696659E-04  1.38944290801293E-01
 cg2d: Sum(rhs),rhsMax =  -3.83151439581722E-04  1.38942370812892E-01
 cg2d: Sum(rhs),rhsMax =  -3.84040372562264E-04  1.38940445917709E-01
 cg2d: Sum(rhs),rhsMax =  -3.84930669710353E-04  1.38938516120661E-01
 cg2d: Sum(rhs),rhsMax =  -3.85822322309558E-04  1.38936581426679E-01
(PID.TID 0000.0001)      cg2d_init_res =   5.55648063032243E-04
(PID.TID 0000.0001)      cg2d_iters(min,last) =      -1      72
(PID.TID 0000.0001)      cg2d_last_res =   8.78309084506587E-08
(PID.TID 0000.0001) // =======================================================
(PID.TID 0000.0001) // Begin MONITOR dynamic field statistics
(PID.TID 0000.0001) // =======================================================
(PID.TID 0000.0001) %MON time_tsnumber                =                 18144
(PID.TID 0000.0001) %MON time_secondsf                =   2.1772800000000E+07
(PID.TID 0000.0001) %MON dynstat_eta_max              =   4.8960220633169E-02
(PID.TID 0000.0001) %MON dynstat_eta_min              =  -1.9689990987028E-02
(PID.TID 0000.0001) %MON dynstat_eta_mean             =   2.6864077330905E-07
(PID.TID 0000.0001) %MON dynstat_eta_sd               =   1.7435822213073E-02
(PID.TID 0000.0001) %MON dynstat_eta_del2             =   1.7791698028166E-05
(PID.TID 0000.0001) %MON dynstat_uvel_max             =   3.1134903407504E-02
(PID.TID 0000.0001) %MON dynstat_uvel_min             =  -1.5958290288381E-02
(PID.TID 0000.0001) %MON dynstat_uvel_mean            =   8.5823677438676E-08
(PID.TID 0000.0001) %MON dynstat_uvel_sd              =   6.4454204086769E-03
(PID.TID 0000.0001) %MON dynstat_uvel_del2            =   7.7777987912418E-06
(PID.TID 0000.0001) %MON dynstat_vvel_max             =   8.3573705989609E-02
(PID.TID 0000.0001) %MON dynstat_vvel_min             =  -3.1250832576747E-02
(PID.TID 0000.0001) %MON dynstat_vvel_mean            =   1.0945943655469E-08
(PID.TID 0000.0001) %MON dynstat_vvel_sd              =   1.4777566232240E-02
(PID.TID 0000.0001) %MON dynstat_vvel_del2            =   7.4679164243417E-05
(PID.TID 0000.0001) %MON dynstat_wvel_max             =   6.6990013033501E-09
(PID.TID 0000.0001) %MON dynstat_wvel_min             =  -9.0190154587617E-09
(PID.TID 0000.0001) %MON dynstat_wvel_mean            =  -1.7377057777897E-21
(PID.TID 0000.0001) %MON dynstat_wvel_sd              =   3.4569445044524E-09
(PID.TID 0000.0001) %MON dynstat_wvel_del2            =   1.1356066740292E-12
(PID.TID 0000.0001) %MON dynstat_theta_max            =   2.0000000000000E+01
(PID.TID 0000.0001) %MON dynstat_theta_min            =   2.0000000000000E+01
(PID.TID 0000.0001) %MON dynstat_theta_mean           =   2.0000000000000E+01
(PID.TID 0000.0001) %MON dynstat_theta_sd             =   0.0000000000000E+00
(PID.TID 0000.0001) %MON dynstat_theta_del2           =   0.0000000000000E+00
(PID.TID 0000.0001) %MON dynstat_salt_max             =   3.0000000000000E+01
(PID.TID 0000.0001) %MON dynstat_salt_min             =   3.0000000000000E+01
(PID.TID 0000.0001) %MON dynstat_salt_mean            =   3.0000000000000E+01
(PID.TID 0000.0001) %MON dynstat_salt_sd              =   0.0000000000000E+00
(PID.TID 0000.0001) %MON dynstat_salt_del2            =   0.0000000000000E+00
(PID.TID 0000.0001) %MON trAdv_CFL_u_max              =   1.8681180769776E-03
(PID.TID 0000.0001) %MON trAdv_CFL_v_max              =   5.0144649756663E-03
(PID.TID 0000.0001) %MON trAdv_CFL_w_max              =   1.6067067524251E-09
(PID.TID 0000.0001) %MON advcfl_uvel_max              =   1.8680942044502E-03
(PID.TID 0000.0001) %MON advcfl_vvel_max              =   5.0144223593765E-03
(PID.TID 0000.0001) %MON advcfl_wvel_max              =   4.3291274202056E-09
(PID.TID 0000.0001) %MON advcfl_W_hf_max              =   0.0000000000000E+00
(PID.TID 0000.0001) %MON pe_b_mean                    =   2.9823174628802E-07
(PID.TID 0000.0001) %MON ke_max                       =   3.4903837802224E-03
(PID.TID 0000.0001) %MON ke_mean                      =   1.2779395476681E-04
(PID.TID 0000.0001) %MON ke_vol                       =   7.2000000000000E+15
(PID.TID 0000.0001) %MON vort_r_min                   =  -1.4654533712100E-06
(PID.TID 0000.0001) %MON vort_r_max                   =   2.2992411065369E-06
(PID.TID 0000.0001) %MON vort_a_mean                  =   1.0600000000000E-04
(PID.TID 0000.0001) %MON vort_a_sd                    =   3.5367601047918E-06
(PID.TID 0000.0001) %MON vort_p_mean                  =   1.1130000000000E-04
(PID.TID 0000.0001) %MON vort_p_sd                    =   4.1150556827389E-05
(PID.TID 0000.0001) %MON surfExpan_theta_mean         =  -3.4756592665670E-20
(PID.TID 0000.0001) %MON surfExpan_salt_mean          =  -5.2134888998504E-20
(PID.TID 0000.0001) // =======================================================
(PID.TID 0000.0001) // End MONITOR dynamic field statistics
(PID.TID 0000.0001) // =======================================================
 cg2d: Sum(rhs),rhsMax =  -3.86715321279523E-04  1.38934641840713E-01
 cg2d: Sum(rhs),rhsMax =  -3.87609657978748E-04  1.38932697367727E-01
 cg2d: Sum(rhs),rhsMax =  -3.88505323287674E-04  1.38930748012701E-01
 cg2d: Sum(rhs),rhsMax =  -3.89402308401941E-04  1.38928793780633E-01
 cg2d: Sum(rhs),rhsMax =  -3.90300604233463E-04  1.38926834676535E-01
 cg2d: Sum(rhs),rhsMax =  -3.91200201780122E-04  1.38924870705437E-01
 cg2d: Sum(rhs),rhsMax =  -3.92101092155834E-04  1.38922901872384E-01
 cg2d: Sum(rhs),rhsMax =  -3.93003266223752E-04  1.38920928182438E-01
 cg2d: Sum(rhs),rhsMax =  -3.93906714886304E-04  1.38918949640676E-01
 cg2d: Sum(rhs),rhsMax =  -3.94811429114877E-04  1.38916966252190E-01
 cg2d: Sum(rhs),rhsMax =  -3.95717399722502E-04  1.38914978022091E-01
 cg2d: Sum(rhs),rhsMax =  -3.96624617634788E-04  1.38912984955506E-01
 cg2d: Sum(rhs),rhsMax =  -3.97533073574305E-04  1.38910987057574E-01
 cg2d: Sum(rhs),rhsMax =  -3.98442758453081E-04  1.38908984333454E-01
 cg2d: Sum(rhs),rhsMax =  -3.99353662867306E-04  1.38906976788319E-01
 cg2d: Sum(rhs),rhsMax =  -4.00265777807721E-04  1.38904964427360E-01
 cg2d: Sum(rhs),rhsMax =  -4.01179093790168E-04  1.38902947255780E-01
 cg2d: Sum(rhs),rhsMax =  -4.02093601714315E-04  1.38900925278802E-01
 cg2d: Sum(rhs),rhsMax =  -4.03009292120339E-04  1.38898898501664E-01
 cg2d: Sum(rhs),rhsMax =  -4.03926155671616E-04  1.38896866929618E-01
 cg2d: Sum(rhs),rhsMax =  -4.04844183121570E-04  1.38894830567934E-01
 cg2d: Sum(rhs),rhsMax =  -4.05763364976841E-04  1.38892789421897E-01
 cg2d: Sum(rhs),rhsMax =  -4.06683691697724E-04  1.38890743496808E-01
 cg2d: Sum(rhs),rhsMax =  -4.07605154003655E-04  1.38888692797983E-01
 cg2d: Sum(rhs),rhsMax =  -4.08527742450699E-04  1.38886637330756E-01
 cg2d: Sum(rhs),rhsMax =  -4.09451447557019E-04  1.38884577100474E-01
 cg2d: Sum(rhs),rhsMax =  -4.10376259703960E-04  1.38882512112502E-01
 cg2d: Sum(rhs),rhsMax =  -4.11302169401613E-04  1.38880442372220E-01
 cg2d: Sum(rhs),rhsMax =  -4.12229167132070E-04  1.38878367885025E-01
 cg2d: Sum(rhs),rhsMax =  -4.13157243207649E-04  1.38876288656327E-01
 cg2d: Sum(rhs),rhsMax =  -4.14086388148912E-04  1.38874204691553E-01
 cg2d: Sum(rhs),rhsMax =  -4.15016592320057E-04  1.38872115996148E-01
 cg2d: Sum(rhs),rhsMax =  -4.15947845934662E-04  1.38870022575569E-01
 cg2d: Sum(rhs),rhsMax =  -4.16880139451338E-04  1.38867924435292E-01
 cg2d: Sum(rhs),rhsMax =  -4.17813463123241E-04  1.38865821580805E-01
 cg2d: Sum(rhs),rhsMax =  -4.18747807188698E-04  1.38863714017617E-01
 cg2d: Sum(rhs),rhsMax =  -4.19683161910576E-04  1.38861601751247E-01
 cg2d: Sum(rhs),rhsMax =  -4.20619517647035E-04  1.38859484787232E-01
 cg2d: Sum(rhs),rhsMax =  -4.21556864524988E-04  1.38857363131126E-01
 cg2d: Sum(rhs),rhsMax =  -4.22495192683597E-04  1.38855236788497E-01
 cg2d: Sum(rhs),rhsMax =  -4.23434492429761E-04  1.38853105764929E-01
 cg2d: Sum(rhs),rhsMax =  -4.24374753847590E-04  1.38850970066022E-01
 cg2d: Sum(rhs),rhsMax =  -4.25315966923714E-04  1.38848829697390E-01
 cg2d: Sum(rhs),rhsMax =  -4.26258121965547E-04  1.38846684664664E-01
 cg2d: Sum(rhs),rhsMax =  -4.27201208933581E-04  1.38844534973490E-01
 cg2d: Sum(rhs),rhsMax =  -4.28145217903947E-04  1.38842380629530E-01
 cg2d: Sum(rhs),rhsMax =  -4.29090138958161E-04  1.38840221638461E-01
 cg2d: Sum(rhs),rhsMax =  -4.30035962007997E-04  1.38838058005976E-01
 cg2d: Sum(rhs),rhsMax =  -4.30982677144157E-04  1.38835889737782E-01
 cg2d: Sum(rhs),rhsMax =  -4.31930274311012E-04  1.38833716839603E-01
 cg2d: Sum(rhs),rhsMax =  -4.32964194578783E-04  1.38831539048193E-01
 cg2d: Sum(rhs),rhsMax =  -4.33998801580934E-04  1.38829356886352E-01
 cg2d: Sum(rhs),rhsMax =  -4.35034222648159E-04  1.38827170123811E-01
 cg2d: Sum(rhs),rhsMax =  -4.36070399911247E-04  1.38824978760399E-01
 cg2d: Sum(rhs),rhsMax =  -4.37107326865467E-04  1.38822782796751E-01
 cg2d: Sum(rhs),rhsMax =  -4.38144990184875E-04  1.38820582236860E-01
 cg2d: Sum(rhs),rhsMax =  -4.39183378064362E-04  1.38818377087170E-01
 cg2d: Sum(rhs),rhsMax =  -4.40222478113482E-04  1.38816167353729E-01
 cg2d: Sum(rhs),rhsMax =  -4.41262278745252E-04  1.38813953042603E-01
 cg2d: Sum(rhs),rhsMax =  -4.42302768326690E-04  1.38811734159650E-01
 cg2d: Sum(rhs),rhsMax =  -4.43343935340559E-04  1.38809510710722E-01
 cg2d: Sum(rhs),rhsMax =  -4.44385768395658E-04  1.38807282701682E-01
 cg2d: Sum(rhs),rhsMax =  -4.45428255917594E-04  1.38805050138439E-01
 cg2d: Sum(rhs),rhsMax =  -4.46471386211917E-04  1.38802813026929E-01
 cg2d: Sum(rhs),rhsMax =  -4.47515147647049E-04  1.38800571373120E-01
 cg2d: Sum(rhs),rhsMax =  -4.48559528487703E-04  1.38798325182991E-01
 cg2d: Sum(rhs),rhsMax =  -4.49604517069107E-04  1.38796074462534E-01
 cg2d: Sum(rhs),rhsMax =  -4.50650101550183E-04  1.38793819217752E-01
 cg2d: Sum(rhs),rhsMax =  -4.51696270415924E-04  1.38791559454658E-01
 cg2d: Sum(rhs),rhsMax =  -4.52743011810767E-04  1.38789295179276E-01
 cg2d: Sum(rhs),rhsMax =  -4.53790313954971E-04  1.38787026397647E-01
 cg2d: Sum(rhs),rhsMax =  -4.54838165099286E-04  1.38784753115826E-01
(PID.TID 0000.0001)      cg2d_init_res =   5.55020351398191E-04
(PID.TID 0000.0001)      cg2d_iters(min,last) =      -1      71
(PID.TID 0000.0001)      cg2d_last_res =   9.77477170100335E-08
(PID.TID 0000.0001) // =======================================================
(PID.TID 0000.0001) // Begin MONITOR dynamic field statistics
(PID.TID 0000.0001) // =======================================================
(PID.TID 0000.0001) %MON time_tsnumber                =                 18216
(PID.TID 0000.0001) %MON time_secondsf                =   2.1859200000000E+07
(PID.TID 0000.0001) %MON dynstat_eta_max              =   4.9041576383395E-02
(PID.TID 0000.0001) %MON dynstat_eta_min              =  -1.9538552503199E-02
(PID.TID 0000.0001) %MON dynstat_eta_mean             =   3.1634532186266E-07
(PID.TID 0000.0001) %MON dynstat_eta_sd               =   1.7280857381322E-02
(PID.TID 0000.0001) %MON dynstat_eta_del2             =   1.7791915060381E-05
(PID.TID 0000.0001) %MON dynstat_uvel_max             =   3.1103692146862E-02
(PID.TID 0000.0001) %MON dynstat_uvel_min             =  -1.5917673416006E-02
(PID.TID 0000.0001) %MON dynstat_uvel_mean            =   9.8625268983174E-08
(PID.TID 0000.0001) %MON dynstat_uvel_sd              =   6.3951521357626E-03
(PID.TID 0000.0001) %MON dynstat_uvel_del2            =   7.7485450409548E-06
(PID.TID 0000.0001) %MON dynstat_vvel_max             =   8.3514265963790E-02
(PID.TID 0000.0001) %MON dynstat_vvel_min             =  -3.1320366687691E-02
(PID.TID 0000.0001) %MON dynstat_vvel_mean            =   9.9651163354851E-09
(PID.TID 0000.0001) %MON dynstat_vvel_sd              =   1.4761616943440E-02
(PID.TID 0000.0001) %MON dynstat_vvel_del2            =   7.4661393203460E-05
(PID.TID 0000.0001) %MON dynstat_wvel_max             =   7.0370853931763E-09
(PID.TID 0000.0001) %MON dynstat_wvel_min             =  -8.8289979350520E-09
(PID.TID 0000.0001) %MON dynstat_wvel_mean            =   1.1720046839198E-21
(PID.TID 0000.0001) %MON dynstat_wvel_sd              =   3.4569902388047E-09
(PID.TID 0000.0001) %MON dynstat_wvel_del2            =   1.1314510797339E-12
(PID.TID 0000.0001) %MON dynstat_theta_max            =   2.0000000000000E+01
(PID.TID 0000.0001) %MON dynstat_theta_min            =   2.0000000000000E+01
(PID.TID 0000.0001) %MON dynstat_theta_mean           =   2.0000000000000E+01
(PID.TID 0000.0001) %MON dynstat_theta_sd             =   0.0000000000000E+00
(PID.TID 0000.0001) %MON dynstat_theta_del2           =   0.0000000000000E+00
(PID.TID 0000.0001) %MON dynstat_salt_max             =   3.0000000000000E+01
(PID.TID 0000.0001) %MON dynstat_salt_min             =   3.0000000000000E+01
(PID.TID 0000.0001) %MON dynstat_salt_mean            =   3.0000000000000E+01
(PID.TID 0000.0001) %MON dynstat_salt_sd              =   0.0000000000000E+00
(PID.TID 0000.0001) %MON dynstat_salt_del2            =   0.0000000000000E+00
(PID.TID 0000.0001) %MON trAdv_CFL_u_max              =   1.8662495776857E-03
(PID.TID 0000.0001) %MON trAdv_CFL_v_max              =   5.0109120965123E-03
(PID.TID 0000.0001) %MON trAdv_CFL_w_max              =   1.6877715664552E-09
(PID.TID 0000.0001) %MON advcfl_uvel_max              =   1.8662215288117E-03
(PID.TID 0000.0001) %MON advcfl_vvel_max              =   5.0108559578274E-03
(PID.TID 0000.0001) %MON advcfl_wvel_max              =   4.2379190088250E-09
(PID.TID 0000.0001) %MON advcfl_W_hf_max              =   0.0000000000000E+00
(PID.TID 0000.0001) %MON pe_b_mean                    =   2.9295409932691E-07
(PID.TID 0000.0001) %MON ke_max                       =   3.4850113253945E-03
(PID.TID 0000.0001) %MON ke_mean                      =   1.2724495860350E-04
(PID.TID 0000.0001) %MON ke_vol                       =   7.2000000000000E+15
(PID.TID 0000.0001) %MON vort_r_min                   =  -1.4649985724526E-06
(PID.TID 0000.0001) %MON vort_r_max                   =   2.2964123247811E-06
(PID.TID 0000.0001) %MON vort_a_mean                  =   1.0600000000000E-04
(PID.TID 0000.0001) %MON vort_a_sd                    =   3.5367364942301E-06
(PID.TID 0000.0001) %MON vort_p_mean                  =   1.1130000000000E-04
(PID.TID 0000.0001) %MON vort_p_sd                    =   4.1150541954166E-05
(PID.TID 0000.0001) %MON surfExpan_theta_mean         =   2.3441594344654E-20
(PID.TID 0000.0001) %MON surfExpan_salt_mean          =   3.5162707313753E-20
(PID.TID 0000.0001) // =======================================================
(PID.TID 0000.0001) // End MONITOR dynamic field statistics
(PID.TID 0000.0001) // =======================================================
 cg2d: Sum(rhs),rhsMax =  -4.55886553500855E-04  1.38782475339886E-01
 cg2d: Sum(rhs),rhsMax =  -4.56935467403746E-04  1.38780193075917E-01
 cg2d: Sum(rhs),rhsMax =  -4.57984894922916E-04  1.38777906330023E-01
 cg2d: Sum(rhs),rhsMax =  -4.59034824246436E-04  1.38775615108326E-01
 cg2d: Sum(rhs),rhsMax =  -4.60085243530897E-04  1.38773319416960E-01
 cg2d: Sum(rhs),rhsMax =  -4.61136140989459E-04  1.38771019262077E-01
 cg2d: Sum(rhs),rhsMax =  -4.62187504646148E-04  1.38768714649839E-01
 cg2d: Sum(rhs),rhsMax =  -4.63239322617467E-04  1.38766405586427E-01
 cg2d: Sum(rhs),rhsMax =  -4.64291583146017E-04  1.38764092078034E-01
 cg2d: Sum(rhs),rhsMax =  -4.65344274226615E-04  1.38761774130867E-01
 cg2d: Sum(rhs),rhsMax =  -4.66397383990132E-04  1.38759451751152E-01
 cg2d: Sum(rhs),rhsMax =  -4.67450900346359E-04  1.38757124945126E-01
 cg2d: Sum(rhs),rhsMax =  -4.68504811530542E-04  1.38754793719043E-01
 cg2d: Sum(rhs),rhsMax =  -4.69559105578466E-04  1.38752458079171E-01
 cg2d: Sum(rhs),rhsMax =  -4.70613770380479E-04  1.38750118031794E-01
 cg2d: Sum(rhs),rhsMax =  -4.71668793974566E-04  1.38747773583209E-01
 cg2d: Sum(rhs),rhsMax =  -4.72724164464005E-04  1.38745424739731E-01
 cg2d: Sum(rhs),rhsMax =  -4.73779869723406E-04  1.38743071507685E-01
 cg2d: Sum(rhs),rhsMax =  -4.74835897851881E-04  1.38740713893415E-01
 cg2d: Sum(rhs),rhsMax =  -4.75892236766941E-04  1.38738351903277E-01
 cg2d: Sum(rhs),rhsMax =  -4.76948874381211E-04  1.38735985543644E-01
 cg2d: Sum(rhs),rhsMax =  -4.78005798706671E-04  1.38733614820901E-01
 cg2d: Sum(rhs),rhsMax =  -4.79062997542583E-04  1.38731239741449E-01
 cg2d: Sum(rhs),rhsMax =  -4.80120458870589E-04  1.38728860311705E-01
 cg2d: Sum(rhs),rhsMax =  -4.81178170669157E-04  1.38726476538098E-01
 cg2d: Sum(rhs),rhsMax =  -4.82236120718508E-04  1.38724088427074E-01
 cg2d: Sum(rhs),rhsMax =  -4.83294296949956E-04  1.38721695985092E-01
 cg2d: Sum(rhs),rhsMax =  -4.84352687185573E-04  1.38719299218626E-01
 cg2d: Sum(rhs),rhsMax =  -4.85411279333956E-04  1.38716898134165E-01
 cg2d: Sum(rhs),rhsMax =  -4.86470061269373E-04  1.38714492738213E-01
 cg2d: Sum(rhs),rhsMax =  -4.87529020726316E-04  1.38712083037286E-01
 cg2d: Sum(rhs),rhsMax =  -4.88588145660051E-04  1.38709669037918E-01
 cg2d: Sum(rhs),rhsMax =  -4.89647423808708E-04  1.38707250746655E-01
 cg2d: Sum(rhs),rhsMax =  -4.90706842889455E-04  1.38704828170059E-01
 cg2d: Sum(rhs),rhsMax =  -4.91766390889633E-04  1.38702401314704E-01
 cg2d: Sum(rhs),rhsMax =  -4.92826055430036E-04  1.38699970187181E-01
 cg2d: Sum(rhs),rhsMax =  -4.93885824411456E-04  1.38697534794096E-01
 cg2d: Sum(rhs),rhsMax =  -4.94945685545861E-04  1.38695095142066E-01
 cg2d: Sum(rhs),rhsMax =  -4.96005626555881E-04  1.38692651237725E-01
 cg2d: Sum(rhs),rhsMax =  -4.97065635114972E-04  1.38690203087721E-01
 cg2d: Sum(rhs),rhsMax =  -4.98125699151815E-04  1.38687750698715E-01
 cg2d: Sum(rhs),rhsMax =  -4.99185806200528E-04  1.38685294077384E-01
 cg2d: Sum(rhs),rhsMax =  -5.00245944212570E-04  1.38682833230419E-01
 cg2d: Sum(rhs),rhsMax =  -5.01306100642332E-04  1.38680368164525E-01
 cg2d: Sum(rhs),rhsMax =  -5.02366263222376E-04  1.38677898886420E-01
 cg2d: Sum(rhs),rhsMax =  -5.03426419781685E-04  1.38675425402839E-01
 cg2d: Sum(rhs),rhsMax =  -5.04486557912089E-04  1.38672947720529E-01
 cg2d: Sum(rhs),rhsMax =  -5.05546665371167E-04  1.38670465846251E-01
 cg2d: Sum(rhs),rhsMax =  -5.06606729714335E-04  1.38667979786783E-01
 cg2d: Sum(rhs),rhsMax =  -5.07666738638348E-04  1.38665489548913E-01
 cg2d: Sum(rhs),rhsMax =  -5.08726679740085E-04  1.38662995139447E-01
 cg2d: Sum(rhs),rhsMax =  -5.09786540707308E-04  1.38660496565204E-01
 cg2d: Sum(rhs),rhsMax =  -5.10846309120910E-04  1.38657993833014E-01
 cg2d: Sum(rhs),rhsMax =  -5.11905972683556E-04  1.38655486949726E-01
 cg2d: Sum(rhs),rhsMax =  -5.12965518937964E-04  1.38652975922201E-01
 cg2d: Sum(rhs),rhsMax =  -5.14024935590987E-04  1.38650460757312E-01
 cg2d: Sum(rhs),rhsMax =  -5.15084210108332E-04  1.38647941461950E-01
 cg2d: Sum(rhs),rhsMax =  -5.16143330146821E-04  1.38645418043016E-01
 cg2d: Sum(rhs),rhsMax =  -5.17202283259328E-04  1.38642890507428E-01
 cg2d: Sum(rhs),rhsMax =  -5.18261057069022E-04  1.38640358862116E-01
 cg2d: Sum(rhs),rhsMax =  -5.19319639107563E-04  1.38637823114026E-01
 cg2d: Sum(rhs),rhsMax =  -5.20378016959740E-04  1.38635283270117E-01
 cg2d: Sum(rhs),rhsMax =  -5.21436178135723E-04  1.38632739337360E-01
 cg2d: Sum(rhs),rhsMax =  -5.22494110317988E-04  1.38630191322743E-01
 cg2d: Sum(rhs),rhsMax =  -5.23551800952798E-04  1.38627639233266E-01
 cg2d: Sum(rhs),rhsMax =  -5.24609237552786E-04  1.38625083075943E-01
 cg2d: Sum(rhs),rhsMax =  -5.25666407664191E-04  1.38622522857804E-01
 cg2d: Sum(rhs),rhsMax =  -5.26723298845712E-04  1.38619958585888E-01
 cg2d: Sum(rhs),rhsMax =  -5.27779898672846E-04  1.38617390267253E-01
 cg2d: Sum(rhs),rhsMax =  -5.28836194588834E-04  1.38614817908968E-01
 cg2d: Sum(rhs),rhsMax =  -5.29892174087482E-04  1.38612241518116E-01
 cg2d: Sum(rhs),rhsMax =  -5.30947824731938E-04  1.38609661101795E-01
(PID.TID 0000.0001)      cg2d_init_res =   5.54223449255447E-04
(PID.TID 0000.0001)      cg2d_iters(min,last) =      -1      71
(PID.TID 0000.0001)      cg2d_last_res =   8.87005926963779E-08
(PID.TID 0000.0001) // =======================================================
(PID.TID 0000.0001) // Begin MONITOR dynamic field statistics
(PID.TID 0000.0001) // =======================================================
(PID.TID 0000.0001) %MON time_tsnumber                =                 18288
(PID.TID 0000.0001) %MON time_secondsf                =   2.1945600000000E+07
(PID.TID 0000.0001) %MON dynstat_eta_max              =   4.9088060362577E-02
(PID.TID 0000.0001) %MON dynstat_eta_min              =  -1.9404122290980E-02
(PID.TID 0000.0001) %MON dynstat_eta_mean             =   3.6869699586474E-07
(PID.TID 0000.0001) %MON dynstat_eta_sd               =   1.7117020347361E-02
(PID.TID 0000.0001) %MON dynstat_eta_del2             =   1.7790910608198E-05
(PID.TID 0000.0001) %MON dynstat_uvel_max             =   3.1067627397614E-02
(PID.TID 0000.0001) %MON dynstat_uvel_min             =  -1.5872013821678E-02
(PID.TID 0000.0001) %MON dynstat_uvel_mean            =   1.1010072081910E-07
(PID.TID 0000.0001) %MON dynstat_uvel_sd              =   6.3460670091312E-03
(PID.TID 0000.0001) %MON dynstat_uvel_del2            =   7.7195971716518E-06
(PID.TID 0000.0001) %MON dynstat_vvel_max             =   8.3439097381867E-02
(PID.TID 0000.0001) %MON dynstat_vvel_min             =  -3.1391309436410E-02
(PID.TID 0000.0001) %MON dynstat_vvel_mean            =   8.8817647375083E-09
(PID.TID 0000.0001) %MON dynstat_vvel_sd              =   1.4742701999355E-02
(PID.TID 0000.0001) %MON dynstat_vvel_del2            =   7.4632759854849E-05
(PID.TID 0000.0001) %MON dynstat_wvel_max             =   7.3382638318253E-09
(PID.TID 0000.0001) %MON dynstat_wvel_min             =  -8.6179530198569E-09
(PID.TID 0000.0001) %MON dynstat_wvel_mean            =   2.9321603910325E-22
(PID.TID 0000.0001) %MON dynstat_wvel_sd              =   3.4571497941855E-09
(PID.TID 0000.0001) %MON dynstat_wvel_del2            =   1.1251275181965E-12
(PID.TID 0000.0001) %MON dynstat_theta_max            =   2.0000000000000E+01
(PID.TID 0000.0001) %MON dynstat_theta_min            =   2.0000000000000E+01
(PID.TID 0000.0001) %MON dynstat_theta_mean           =   2.0000000000000E+01
(PID.TID 0000.0001) %MON dynstat_theta_sd             =   0.0000000000000E+00
(PID.TID 0000.0001) %MON dynstat_theta_del2           =   0.0000000000000E+00
(PID.TID 0000.0001) %MON dynstat_salt_max             =   3.0000000000000E+01
(PID.TID 0000.0001) %MON dynstat_salt_min             =   3.0000000000000E+01
(PID.TID 0000.0001) %MON dynstat_salt_mean            =   3.0000000000000E+01
(PID.TID 0000.0001) %MON dynstat_salt_sd              =   0.0000000000000E+00
(PID.TID 0000.0001) %MON dynstat_salt_del2            =   0.0000000000000E+00
(PID.TID 0000.0001) %MON trAdv_CFL_u_max              =   1.8640895975940E-03
(PID.TID 0000.0001) %MON trAdv_CFL_v_max              =   5.0064146483978E-03
(PID.TID 0000.0001) %MON trAdv_CFL_w_max              =   1.7603028944803E-09
(PID.TID 0000.0001) %MON advcfl_uvel_max              =   1.8640576438569E-03
(PID.TID 0000.0001) %MON advcfl_vvel_max              =   5.0063458429120E-03
(PID.TID 0000.0001) %MON advcfl_wvel_max              =   4.1366174495313E-09
(PID.TID 0000.0001) %MON advcfl_W_hf_max              =   0.0000000000000E+00
(PID.TID 0000.0001) %MON pe_b_mean                    =   2.8742553037945E-07
(PID.TID 0000.0001) %MON ke_max                       =   3.4783591581119E-03
(PID.TID 0000.0001) %MON ke_mean                      =   1.2666308246303E-04
(PID.TID 0000.0001) %MON ke_vol                       =   7.2000000000000E+15
(PID.TID 0000.0001) %MON vort_r_min                   =  -1.4645186361859E-06
(PID.TID 0000.0001) %MON vort_r_max                   =   2.2931712190719E-06
(PID.TID 0000.0001) %MON vort_a_mean                  =   1.0600000000000E-04
(PID.TID 0000.0001) %MON vort_a_sd                    =   3.5367080626188E-06
(PID.TID 0000.0001) %MON vort_p_mean                  =   1.1130000000000E-04
(PID.TID 0000.0001) %MON vort_p_sd                    =   4.1150533173348E-05
(PID.TID 0000.0001) %MON surfExpan_theta_mean         =   5.8643460458067E-21
(PID.TID 0000.0001) %MON surfExpan_salt_mean          =   8.7962032719386E-21
(PID.TID 0000.0001) // =======================================================
(PID.TID 0000.0001) // End MONITOR dynamic field statistics
(PID.TID 0000.0001) // =======================================================
 cg2d: Sum(rhs),rhsMax =  -5.32003133932690E-04  1.38607076667114E-01
 cg2d: Sum(rhs),rhsMax =  -5.33058089242444E-04  1.38604488221201E-01
 cg2d: Sum(rhs),rhsMax =  -5.34112678059569E-04  1.38601895771191E-01
 cg2d: Sum(rhs),rhsMax =  -5.35166888135549E-04  1.38599299324236E-01
 cg2d: Sum(rhs),rhsMax =  -5.36220706643912E-04  1.38596698887503E-01
 cg2d: Sum(rhs),rhsMax =  -5.37274121191199E-04  1.38594094468171E-01
 cg2d: Sum(rhs),rhsMax =  -5.38327119240055E-04  1.38591486073431E-01
 cg2d: Sum(rhs),rhsMax =  -5.39379688340568E-04  1.38588873710491E-01
 cg2d: Sum(rhs),rhsMax =  -5.40431815807560E-04  1.38586257386571E-01
 cg2d: Sum(rhs),rhsMax =  -5.41483489117312E-04  1.38583637108904E-01
 cg2d: Sum(rhs),rhsMax =  -5.42534695862149E-04  1.38581012884736E-01
 cg2d: Sum(rhs),rhsMax =  -5.43585423434878E-04  1.38578384721328E-01
 cg2d: Sum(rhs),rhsMax =  -5.44635659224379E-04  1.38575752625955E-01
 cg2d: Sum(rhs),rhsMax =  -5.45685390727712E-04  1.38573116605902E-01
 cg2d: Sum(rhs),rhsMax =  -5.46734605331790E-04  1.38570476668473E-01
 cg2d: Sum(rhs),rhsMax =  -5.47783290513268E-04  1.38567832820980E-01
 cg2d: Sum(rhs),rhsMax =  -5.48831433750842E-04  1.38565185070751E-01
 cg2d: Sum(rhs),rhsMax =  -5.49879022391510E-04  1.38562533425127E-01
 cg2d: Sum(rhs),rhsMax =  -5.50926043960031E-04  1.38559877891463E-01
 cg2d: Sum(rhs),rhsMax =  -5.51972485865465E-04  1.38557218477126E-01
 cg2d: Sum(rhs),rhsMax =  -5.53018335527581E-04  1.38554555189498E-01
 cg2d: Sum(rhs),rhsMax =  -5.54063580305621E-04  1.38551888035972E-01
 cg2d: Sum(rhs),rhsMax =  -5.55108207711670E-04  1.38549217023957E-01
 cg2d: Sum(rhs),rhsMax =  -5.56152204984468E-04  1.38546542160872E-01
 cg2d: Sum(rhs),rhsMax =  -5.57268605687438E-04  1.38543863819267E-01
 cg2d: Sum(rhs),rhsMax =  -5.58384198033770E-04  1.38541181250230E-01
 cg2d: Sum(rhs),rhsMax =  -5.59498829643932E-04  1.38538494864245E-01
 cg2d: Sum(rhs),rhsMax =  -5.60612535542732E-04  1.38535804667961E-01
 cg2d: Sum(rhs),rhsMax =  -5.61725309485359E-04  1.38533110658315E-01
 cg2d: Sum(rhs),rhsMax =  -5.62837139223721E-04  1.38530412841159E-01
 cg2d: Sum(rhs),rhsMax =  -5.63948010688385E-04  1.38527711224329E-01
 cg2d: Sum(rhs),rhsMax =  -5.65057909504871E-04  1.38525005815899E-01
 cg2d: Sum(rhs),rhsMax =  -5.66166822171759E-04  1.38522296623802E-01
 cg2d: Sum(rhs),rhsMax =  -5.67274735798914E-04  1.38519583655750E-01
 cg2d: Sum(rhs),rhsMax =  -5.68381638132446E-04  1.38516866919302E-01
 cg2d: Sum(rhs),rhsMax =  -5.69487516965619E-04  1.38514146421963E-01
 cg2d: Sum(rhs),rhsMax =  -5.70592359762474E-04  1.38511422171250E-01
 cg2d: Sum(rhs),rhsMax =  -5.71696153934538E-04  1.38508694174727E-01
 cg2d: Sum(rhs),rhsMax =  -5.72798886859882E-04  1.38505962440007E-01
 cg2d: Sum(rhs),rhsMax =  -5.73900545666114E-04  1.38503226974735E-01
 cg2d: Sum(rhs),rhsMax =  -5.75001117838888E-04  1.38500487786569E-01
 cg2d: Sum(rhs),rhsMax =  -5.76100590639406E-04  1.38497744883177E-01
 cg2d: Sum(rhs),rhsMax =  -5.77198951562668E-04  1.38494998272229E-01
 cg2d: Sum(rhs),rhsMax =  -5.78296188010475E-04  1.38492247961405E-01
 cg2d: Sum(rhs),rhsMax =  -5.79392287385089E-04  1.38489493958395E-01
 cg2d: Sum(rhs),rhsMax =  -5.80487237056178E-04  1.38486736270901E-01
 cg2d: Sum(rhs),rhsMax =  -5.81581024587973E-04  1.38483974906645E-01
 cg2d: Sum(rhs),rhsMax =  -5.82673637253981E-04  1.38481209873359E-01
 cg2d: Sum(rhs),rhsMax =  -5.83765062627134E-04  1.38478441178789E-01
 cg2d: Sum(rhs),rhsMax =  -5.84855288049324E-04  1.38475668830696E-01
 cg2d: Sum(rhs),rhsMax =  -5.85944301066460E-04  1.38472892836849E-01
 cg2d: Sum(rhs),rhsMax =  -5.87032089062343E-04  1.38470113205032E-01
 cg2d: Sum(rhs),rhsMax =  -5.88118639593737E-04  1.38467329943041E-01
 cg2d: Sum(rhs),rhsMax =  -5.89203940143592E-04  1.38464543058684E-01
 cg2d: Sum(rhs),rhsMax =  -5.90287978086594E-04  1.38461752559783E-01
 cg2d: Sum(rhs),rhsMax =  -5.91370741077755E-04  1.38458958454171E-01
 cg2d: Sum(rhs),rhsMax =  -5.92452216678517E-04  1.38456160749695E-01
 cg2d: Sum(rhs),rhsMax =  -5.93532392297130E-04  1.38453359454214E-01
 cg2d: Sum(rhs),rhsMax =  -5.94611255419266E-04  1.38450554575600E-01
 cg2d: Sum(rhs),rhsMax =  -5.95688793680643E-04  1.38447746121737E-01
 cg2d: Sum(rhs),rhsMax =  -5.96764994655019E-04  1.38444934100520E-01
 cg2d: Sum(rhs),rhsMax =  -5.97839845880670E-04  1.38442118519860E-01
 cg2d: Sum(rhs),rhsMax =  -5.98913334885053E-04  1.38439299387677E-01
 cg2d: Sum(rhs),rhsMax =  -5.99985449323094E-04  1.38436476711904E-01
 cg2d: Sum(rhs),rhsMax =  -6.01056176831281E-04  1.38433650500489E-01
 cg2d: Sum(rhs),rhsMax =  -6.02125504940562E-04  1.38430820761389E-01
 cg2d: Sum(rhs),rhsMax =  -6.03193421252353E-04  1.38427987502576E-01
 cg2d: Sum(rhs),rhsMax =  -6.04259913497902E-04  1.38425150732031E-01
 cg2d: Sum(rhs),rhsMax =  -6.05324969183387E-04  1.38422310457752E-01
 cg2d: Sum(rhs),rhsMax =  -6.06388576054817E-04  1.38419466687745E-01
 cg2d: Sum(rhs),rhsMax =  -6.07450721824700E-04  1.38416619430030E-01
 cg2d: Sum(rhs),rhsMax =  -6.08511393999668E-04  1.38413768692639E-01
(PID.TID 0000.0001)      cg2d_init_res =   5.53215923039658E-04
(PID.TID 0000.0001)      cg2d_iters(min,last) =      -1      70
(PID.TID 0000.0001)      cg2d_last_res =   9.25384441341608E-08
(PID.TID 0000.0001) // =======================================================
(PID.TID 0000.0001) // Begin MONITOR dynamic field statistics
(PID.TID 0000.0001) // =======================================================
(PID.TID 0000.0001) %MON time_tsnumber                =                 18360
(PID.TID 0000.0001) %MON time_secondsf                =   2.2032000000000E+07
(PID.TID 0000.0001) %MON dynstat_eta_max              =   4.9099208802179E-02
(PID.TID 0000.0001) %MON dynstat_eta_min              =  -1.9288726399860E-02
(PID.TID 0000.0001) %MON dynstat_eta_mean             =   4.2185610743209E-07
(PID.TID 0000.0001) %MON dynstat_eta_sd               =   1.6946379853335E-02
(PID.TID 0000.0001) %MON dynstat_eta_del2             =   1.7788599838429E-05
(PID.TID 0000.0001) %MON dynstat_uvel_max             =   3.1027077000254E-02
(PID.TID 0000.0001) %MON dynstat_uvel_min             =  -1.5821812400415E-02
(PID.TID 0000.0001) %MON dynstat_uvel_mean            =   1.2010020533536E-07
(PID.TID 0000.0001) %MON dynstat_uvel_sd              =   6.2988410175415E-03
(PID.TID 0000.0001) %MON dynstat_uvel_del2            =   7.6912187308389E-06
(PID.TID 0000.0001) %MON dynstat_vvel_max             =   8.3349358837251E-02
(PID.TID 0000.0001) %MON dynstat_vvel_min             =  -3.1462202766474E-02
(PID.TID 0000.0001) %MON dynstat_vvel_mean            =   7.7048815411390E-09
(PID.TID 0000.0001) %MON dynstat_vvel_sd              =   1.4721048114668E-02
(PID.TID 0000.0001) %MON dynstat_vvel_del2            =   7.4593417108987E-05
(PID.TID 0000.0001) %MON dynstat_wvel_max             =   7.6405271488329E-09
(PID.TID 0000.0001) %MON dynstat_wvel_min             =  -8.3894125855295E-09
(PID.TID 0000.0001) %MON dynstat_wvel_mean            =  -7.0229008189118E-22
(PID.TID 0000.0001) %MON dynstat_wvel_sd              =   3.4569900815092E-09
(PID.TID 0000.0001) %MON dynstat_wvel_del2            =   1.1265472873805E-12
(PID.TID 0000.0001) %MON dynstat_theta_max            =   2.0000000000000E+01
(PID.TID 0000.0001) %MON dynstat_theta_min            =   2.0000000000000E+01
(PID.TID 0000.0001) %MON dynstat_theta_mean           =   2.0000000000000E+01
(PID.TID 0000.0001) %MON dynstat_theta_sd             =   0.0000000000000E+00
(PID.TID 0000.0001) %MON dynstat_theta_del2           =   0.0000000000000E+00
(PID.TID 0000.0001) %MON dynstat_salt_max             =   3.0000000000000E+01
(PID.TID 0000.0001) %MON dynstat_salt_min             =   3.0000000000000E+01
(PID.TID 0000.0001) %MON dynstat_salt_mean            =   3.0000000000000E+01
(PID.TID 0000.0001) %MON dynstat_salt_sd              =   0.0000000000000E+00
(PID.TID 0000.0001) %MON dynstat_salt_del2            =   0.0000000000000E+00
(PID.TID 0000.0001) %MON trAdv_CFL_u_max              =   1.8616601386265E-03
(PID.TID 0000.0001) %MON trAdv_CFL_v_max              =   5.0010419326122E-03
(PID.TID 0000.0001) %MON trAdv_CFL_w_max              =   1.8327756365514E-09
(PID.TID 0000.0001) %MON advcfl_uvel_max              =   1.8616246200152E-03
(PID.TID 0000.0001) %MON advcfl_vvel_max              =   5.0009615302351E-03
(PID.TID 0000.0001) %MON advcfl_wvel_max              =   4.0269180410542E-09
(PID.TID 0000.0001) %MON advcfl_W_hf_max              =   0.0000000000000E+00
(PID.TID 0000.0001) %MON pe_b_mean                    =   2.8172337429556E-07
(PID.TID 0000.0001) %MON ke_max                       =   3.4705273962520E-03
(PID.TID 0000.0001) %MON ke_mean                      =   1.2605578908845E-04
(PID.TID 0000.0001) %MON ke_vol                       =   7.2000000000000E+15
(PID.TID 0000.0001) %MON vort_r_min                   =  -1.4640033116837E-06
(PID.TID 0000.0001) %MON vort_r_max                   =   2.2895705574746E-06
(PID.TID 0000.0001) %MON vort_a_mean                  =   1.0600000000000E-04
(PID.TID 0000.0001) %MON vort_a_sd                    =   3.5366750820687E-06
(PID.TID 0000.0001) %MON vort_p_mean                  =   1.1130000000000E-04
(PID.TID 0000.0001) %MON vort_p_sd                    =   4.1150530901596E-05
(PID.TID 0000.0001) %MON surfExpan_theta_mean         =  -1.4043482426334E-20
(PID.TID 0000.0001) %MON surfExpan_salt_mean          =  -2.1064907842730E-20
(PID.TID 0000.0001) // =======================================================
(PID.TID 0000.0001) // End MONITOR dynamic field statistics
(PID.TID 0000.0001) // =======================================================
 cg2d: Sum(rhs),rhsMax =  -6.09570580515677E-04  1.38410914483617E-01
 cg2d: Sum(rhs),rhsMax =  -6.10628268863242E-04  1.38408056811021E-01
 cg2d: Sum(rhs),rhsMax =  -6.11684446821496E-04  1.38405195682918E-01
 cg2d: Sum(rhs),rhsMax =  -6.12739102183251E-04  1.38402331107390E-01
 cg2d: Sum(rhs),rhsMax =  -6.13792222516264E-04  1.38399463092529E-01
 cg2d: Sum(rhs),rhsMax =  -6.14843795681708E-04  1.38396591646441E-01
 cg2d: Sum(rhs),rhsMax =  -6.15893809599130E-04  1.38393716777243E-01
 cg2d: Sum(rhs),rhsMax =  -6.16942251806787E-04  1.38390838493062E-01
 cg2d: Sum(rhs),rhsMax =  -6.17989110233530E-04  1.38387956802042E-01
 cg2d: Sum(rhs),rhsMax =  -6.19034372618812E-04  1.38385071712335E-01
 cg2d: Sum(rhs),rhsMax =  -6.20078026811909E-04  1.38382183232105E-01
 cg2d: Sum(rhs),rhsMax =  -6.21120060605949E-04  1.38379291369531E-01
 cg2d: Sum(rhs),rhsMax =  -6.22160461867932E-04  1.38376396132801E-01
 cg2d: Sum(rhs),rhsMax =  -6.23199218467062E-04  1.38373497530115E-01
 cg2d: Sum(rhs),rhsMax =  -6.24236318303229E-04  1.38370595569687E-01
 cg2d: Sum(rhs),rhsMax =  -6.25271749198844E-04  1.38367690259741E-01
 cg2d: Sum(rhs),rhsMax =  -6.26305499112925E-04  1.38364781608514E-01
 cg2d: Sum(rhs),rhsMax =  -6.27337555967772E-04  1.38361869624253E-01
 cg2d: Sum(rhs),rhsMax =  -6.28367907664025E-04  1.38358954315220E-01
 cg2d: Sum(rhs),rhsMax =  -6.29396542086103E-04  1.38356035689685E-01
 cg2d: Sum(rhs),rhsMax =  -6.30423447298980E-04  1.38353113755933E-01
 cg2d: Sum(rhs),rhsMax =  -6.31448611292953E-04  1.38350188522258E-01
 cg2d: Sum(rhs),rhsMax =  -6.32472021887821E-04  1.38347259996969E-01
 cg2d: Sum(rhs),rhsMax =  -6.33493667246955E-04  1.38344328188382E-01
 cg2d: Sum(rhs),rhsMax =  -6.34513535365467E-04  1.38341393104830E-01
 cg2d: Sum(rhs),rhsMax =  -6.35531614217954E-04  1.38338454754653E-01
 cg2d: Sum(rhs),rhsMax =  -6.36547892024578E-04  1.38335513146205E-01
 cg2d: Sum(rhs),rhsMax =  -6.37562356646200E-04  1.38332568287852E-01
 cg2d: Sum(rhs),rhsMax =  -6.38574996275692E-04  1.38329620187970E-01
 cg2d: Sum(rhs),rhsMax =  -6.39585798974544E-04  1.38326668854947E-01
 cg2d: Sum(rhs),rhsMax =  -6.40594752906435E-04  1.38323714297184E-01
 cg2d: Sum(rhs),rhsMax =  -6.41601846220359E-04  1.38320756523091E-01
 cg2d: Sum(rhs),rhsMax =  -6.42607067038095E-04  1.38317795541092E-01
 cg2d: Sum(rhs),rhsMax =  -6.43610403508176E-04  1.38314831359619E-01
 cg2d: Sum(rhs),rhsMax =  -6.44611843871809E-04  1.38311863987120E-01
 cg2d: Sum(rhs),rhsMax =  -6.45611376305880E-04  1.38308893432052E-01
 cg2d: Sum(rhs),rhsMax =  -6.46608989012124E-04  1.38305919702881E-01
 cg2d: Sum(rhs),rhsMax =  -6.47604670305672E-04  1.38302942808089E-01
 cg2d: Sum(rhs),rhsMax =  -6.48598408380200E-04  1.38299962756167E-01
 cg2d: Sum(rhs),rhsMax =  -6.49590191482957E-04  1.38296979555615E-01
 cg2d: Sum(rhs),rhsMax =  -6.50580007999463E-04  1.38293993214950E-01
 cg2d: Sum(rhs),rhsMax =  -6.51567846079049E-04  1.38291003742694E-01
 cg2d: Sum(rhs),rhsMax =  -6.52553694209919E-04  1.38288011147385E-01
 cg2d: Sum(rhs),rhsMax =  -6.53537540720208E-04  1.38285015437570E-01
 cg2d: Sum(rhs),rhsMax =  -6.54519373946953E-04  1.38282016621808E-01
 cg2d: Sum(rhs),rhsMax =  -6.55499182269607E-04  1.38279014708666E-01
 cg2d: Sum(rhs),rhsMax =  -6.56476954030323E-04  1.38276009706729E-01
 cg2d: Sum(rhs),rhsMax =  -6.57452677880851E-04  1.38273001624586E-01
 cg2d: Sum(rhs),rhsMax =  -6.58426342059202E-04  1.38269990470840E-01
 cg2d: Sum(rhs),rhsMax =  -6.59397935060132E-04  1.38266976254107E-01
 cg2d: Sum(rhs),rhsMax =  -6.60367445406466E-04  1.38263958983012E-01
 cg2d: Sum(rhs),rhsMax =  -6.61334861569850E-04  1.38260938666190E-01
 cg2d: Sum(rhs),rhsMax =  -6.62300172084191E-04  1.38257915312288E-01
 cg2d: Sum(rhs),rhsMax =  -6.63263365564859E-04  1.38254888929966E-01
 cg2d: Sum(rhs),rhsMax =  -6.64224430533325E-04  1.38251859527891E-01
 cg2d: Sum(rhs),rhsMax =  -6.65183355510528E-04  1.38248827114745E-01
 cg2d: Sum(rhs),rhsMax =  -6.66140129088983E-04  1.38245791699217E-01
 cg2d: Sum(rhs),rhsMax =  -6.67094740007182E-04  1.38242753290010E-01
 cg2d: Sum(rhs),rhsMax =  -6.68047176875844E-04  1.38239711895836E-01
 cg2d: Sum(rhs),rhsMax =  -6.68997428318383E-04  1.38236667525420E-01
 cg2d: Sum(rhs),rhsMax =  -6.69945483071187E-04  1.38233620187495E-01
 cg2d: Sum(rhs),rhsMax =  -6.70891329900070E-04  1.38230569890806E-01
 cg2d: Sum(rhs),rhsMax =  -6.71834957418793E-04  1.38227516644109E-01
 cg2d: Sum(rhs),rhsMax =  -6.72776354463014E-04  1.38224460456172E-01
 cg2d: Sum(rhs),rhsMax =  -6.73715509772777E-04  1.38221401335770E-01
 cg2d: Sum(rhs),rhsMax =  -6.74652412121957E-04  1.38218339291692E-01
 cg2d: Sum(rhs),rhsMax =  -6.75587050386681E-04  1.38215274332738E-01
 cg2d: Sum(rhs),rhsMax =  -6.76519413426373E-04  1.38212206467715E-01
 cg2d: Sum(rhs),rhsMax =  -6.77449490017722E-04  1.38209135705444E-01
 cg2d: Sum(rhs),rhsMax =  -6.78377269030287E-04  1.38206062054755E-01
 cg2d: Sum(rhs),rhsMax =  -6.79302739526660E-04  1.38202985524490E-01
 cg2d: Sum(rhs),rhsMax =  -6.80225890319328E-04  1.38199906123500E-01
(PID.TID 0000.0001)      cg2d_init_res =   5.51965805295564E-04
(PID.TID 0000.0001)      cg2d_iters(min,last) =      -1      70
(PID.TID 0000.0001)      cg2d_last_res =   8.16512711054083E-08
(PID.TID 0000.0001) // =======================================================
(PID.TID 0000.0001) // Begin MONITOR dynamic field statistics
(PID.TID 0000.0001) // =======================================================
(PID.TID 0000.0001) %MON time_tsnumber                =                 18432
(PID.TID 0000.0001) %MON time_secondsf                =   2.2118400000000E+07
(PID.TID 0000.0001) %MON dynstat_eta_max              =   4.9075072171347E-02
(PID.TID 0000.0001) %MON dynstat_eta_min              =  -1.9194139123416E-02
(PID.TID 0000.0001) %MON dynstat_eta_mean             =   4.7066155985504E-07
(PID.TID 0000.0001) %MON dynstat_eta_sd               =   1.6771143121404E-02
(PID.TID 0000.0001) %MON dynstat_eta_del2             =   1.7784919836260E-05
(PID.TID 0000.0001) %MON dynstat_uvel_max             =   3.0982488422770E-02
(PID.TID 0000.0001) %MON dynstat_uvel_min             =  -1.5767642155997E-02
(PID.TID 0000.0001) %MON dynstat_uvel_mean            =   1.2849373157421E-07
(PID.TID 0000.0001) %MON dynstat_uvel_sd              =   6.2541419859597E-03
(PID.TID 0000.0001) %MON dynstat_uvel_del2            =   7.6636848429628E-06
(PID.TID 0000.0001) %MON dynstat_vvel_max             =   8.3246456567480E-02
(PID.TID 0000.0001) %MON dynstat_vvel_min             =  -3.1531570571883E-02
(PID.TID 0000.0001) %MON dynstat_vvel_mean            =   6.4444665573209E-09
(PID.TID 0000.0001) %MON dynstat_vvel_sd              =   1.4696923397778E-02
(PID.TID 0000.0001) %MON dynstat_vvel_del2            =   7.4543674920328E-05
(PID.TID 0000.0001) %MON dynstat_wvel_max             =   7.8907020242696E-09
(PID.TID 0000.0001) %MON dynstat_wvel_min             =  -8.1397647838457E-09
(PID.TID 0000.0001) %MON dynstat_wvel_mean            =  -5.1087479530704E-22
(PID.TID 0000.0001) %MON dynstat_wvel_sd              =   3.4561190229698E-09
(PID.TID 0000.0001) %MON dynstat_wvel_del2            =   1.1216117014612E-12
(PID.TID 0000.0001) %MON dynstat_theta_max            =   2.0000000000000E+01
(PID.TID 0000.0001) %MON dynstat_theta_min            =   2.0000000000000E+01
(PID.TID 0000.0001) %MON dynstat_theta_mean           =   2.0000000000000E+01
(PID.TID 0000.0001) %MON dynstat_theta_sd             =   0.0000000000000E+00
(PID.TID 0000.0001) %MON dynstat_theta_del2           =   0.0000000000000E+00
(PID.TID 0000.0001) %MON dynstat_salt_max             =   3.0000000000000E+01
(PID.TID 0000.0001) %MON dynstat_salt_min             =   3.0000000000000E+01
(PID.TID 0000.0001) %MON dynstat_salt_mean            =   3.0000000000000E+01
(PID.TID 0000.0001) %MON dynstat_salt_sd              =   0.0000000000000E+00
(PID.TID 0000.0001) %MON dynstat_salt_del2            =   0.0000000000000E+00
(PID.TID 0000.0001) %MON trAdv_CFL_u_max              =   1.8589879847440E-03
(PID.TID 0000.0001) %MON trAdv_CFL_v_max              =   4.9948781250987E-03
(PID.TID 0000.0001) %MON trAdv_CFL_w_max              =   1.8927483346575E-09
(PID.TID 0000.0001) %MON advcfl_uvel_max              =   1.8589493053662E-03
(PID.TID 0000.0001) %MON advcfl_vvel_max              =   4.9947873940488E-03
(PID.TID 0000.0001) %MON advcfl_wvel_max              =   3.9070870962460E-09
(PID.TID 0000.0001) %MON advcfl_W_hf_max              =   0.0000000000000E+00
(PID.TID 0000.0001) %MON pe_b_mean                    =   2.7592708822557E-07
(PID.TID 0000.0001) %MON ke_max                       =   3.4616367669322E-03
(PID.TID 0000.0001) %MON ke_mean                      =   1.2543097593398E-04
(PID.TID 0000.0001) %MON ke_vol                       =   7.2000000000000E+15
(PID.TID 0000.0001) %MON vort_r_min                   =  -1.4634436526121E-06
(PID.TID 0000.0001) %MON vort_r_max                   =   2.2856691053956E-06
(PID.TID 0000.0001) %MON vort_a_mean                  =   1.0600000000000E-04
(PID.TID 0000.0001) %MON vort_a_sd                    =   3.5366378958180E-06
(PID.TID 0000.0001) %MON vort_p_mean                  =   1.1130000000000E-04
(PID.TID 0000.0001) %MON vort_p_sd                    =   4.1150535481731E-05
(PID.TID 0000.0001) %MON surfExpan_theta_mean         =  -1.0216657149916E-20
(PID.TID 0000.0001) %MON surfExpan_salt_mean          =  -1.5324669928102E-20
(PID.TID 0000.0001) // =======================================================
(PID.TID 0000.0001) // End MONITOR dynamic field statistics
(PID.TID 0000.0001) // =======================================================
 cg2d: Sum(rhs),rhsMax =  -6.81146710468598E-04  1.38196823860646E-01
 cg2d: Sum(rhs),rhsMax =  -6.82065188889152E-04  1.38193738744802E-01
 cg2d: Sum(rhs),rhsMax =  -6.83036051770263E-04  1.38190650627015E-01
 cg2d: Sum(rhs),rhsMax =  -6.84004235253157E-04  1.38187559812627E-01
 cg2d: Sum(rhs),rhsMax =  -6.84969814669581E-04  1.38184466180743E-01
 cg2d: Sum(rhs),rhsMax =  -6.85932743965058E-04  1.38181369741787E-01
 cg2d: Sum(rhs),rhsMax =  -6.86893016131788E-04  1.38178270495274E-01
 cg2d: Sum(rhs),rhsMax =  -6.87850621286333E-04  1.38175168447683E-01
 cg2d: Sum(rhs),rhsMax =  -6.88805549982260E-04  1.38172063608161E-01
 cg2d: Sum(rhs),rhsMax =  -6.89757791475085E-04  1.38168955986340E-01
 cg2d: Sum(rhs),rhsMax =  -6.90707334909038E-04  1.38165845591810E-01
 cg2d: Sum(rhs),rhsMax =  -6.91654169683036E-04  1.38162732433842E-01
 cg2d: Sum(rhs),rhsMax =  -6.92598285689884E-04  1.38159616521440E-01
 cg2d: Sum(rhs),rhsMax =  -6.93539672687505E-04  1.38156497863492E-01
 cg2d: Sum(rhs),rhsMax =  -6.94478320436231E-04  1.38153376468877E-01
 cg2d: Sum(rhs),rhsMax =  -6.95414218941975E-04  1.38150252346544E-01
 cg2d: Sum(rhs),rhsMax =  -6.96347357855291E-04  1.38147125505505E-01
 cg2d: Sum(rhs),rhsMax =  -6.97277726958804E-04  1.38143995954816E-01
 cg2d: Sum(rhs),rhsMax =  -6.98205316136592E-04  1.38140863703553E-01
 cg2d: Sum(rhs),rhsMax =  -6.99130115233830E-04  1.38137728760790E-01
 cg2d: Sum(rhs),rhsMax =  -7.00052114282092E-04  1.38134591135600E-01
 cg2d: Sum(rhs),rhsMax =  -7.00971303147841E-04  1.38131450837057E-01
 cg2d: Sum(rhs),rhsMax =  -7.01887671785644E-04  1.38128307874240E-01
 cg2d: Sum(rhs),rhsMax =  -7.02801210300298E-04  1.38125162256244E-01
 cg2d: Sum(rhs),rhsMax =  -7.03711908672590E-04  1.38122013992173E-01
 cg2d: Sum(rhs),rhsMax =  -7.04619756937743E-04  1.38118863091147E-01
 cg2d: Sum(rhs),rhsMax =  -7.05524745220908E-04  1.38115709562293E-01
 cg2d: Sum(rhs),rhsMax =  -7.06426863685531E-04  1.38112553414749E-01
 cg2d: Sum(rhs),rhsMax =  -7.07326102325765E-04  1.38109394657662E-01
 cg2d: Sum(rhs),rhsMax =  -7.08222451443370E-04  1.38106233300187E-01
 cg2d: Sum(rhs),rhsMax =  -7.09115901197139E-04  1.38103069351488E-01
 cg2d: Sum(rhs),rhsMax =  -7.10006441824238E-04  1.38099902820743E-01
 cg2d: Sum(rhs),rhsMax =  -7.10894063576707E-04  1.38096733717136E-01
 cg2d: Sum(rhs),rhsMax =  -7.11778756744491E-04  1.38093562049863E-01
 cg2d: Sum(rhs),rhsMax =  -7.12660511700856E-04  1.38090387828128E-01
 cg2d: Sum(rhs),rhsMax =  -7.13539318765367E-04  1.38087211061148E-01
 cg2d: Sum(rhs),rhsMax =  -7.14415168339697E-04  1.38084031758144E-01
 cg2d: Sum(rhs),rhsMax =  -7.15288050863414E-04  1.38080849928352E-01
 cg2d: Sum(rhs),rhsMax =  -7.16157956663030E-04  1.38077665581014E-01
 cg2d: Sum(rhs),rhsMax =  -7.17024876341807E-04  1.38074478725383E-01
 cg2d: Sum(rhs),rhsMax =  -7.17888800380264E-04  1.38071289370722E-01
 cg2d: Sum(rhs),rhsMax =  -7.18749719264517E-04  1.38068097526301E-01
 cg2d: Sum(rhs),rhsMax =  -7.19607623554491E-04  1.38064903201402E-01
 cg2d: Sum(rhs),rhsMax =  -7.20462503929407E-04  1.38061706405316E-01
 cg2d: Sum(rhs),rhsMax =  -7.21314350885621E-04  1.38058507147342E-01
 cg2d: Sum(rhs),rhsMax =  -7.22163155205129E-04  1.38055305436792E-01
 cg2d: Sum(rhs),rhsMax =  -7.23008907517847E-04  1.38052101282982E-01
 cg2d: Sum(rhs),rhsMax =  -7.23851598518972E-04  1.38048894695242E-01
 cg2d: Sum(rhs),rhsMax =  -7.24691219018702E-04  1.38045685682908E-01
 cg2d: Sum(rhs),rhsMax =  -7.25527759772280E-04  1.38042474255329E-01
 cg2d: Sum(rhs),rhsMax =  -7.26361211554337E-04  1.38039260421858E-01
 cg2d: Sum(rhs),rhsMax =  -7.27191565201502E-04  1.38036044191862E-01
 cg2d: Sum(rhs),rhsMax =  -7.28018811736380E-04  1.38032825574716E-01
 cg2d: Sum(rhs),rhsMax =  -7.28842941899538E-04  1.38029604579802E-01
 cg2d: Sum(rhs),rhsMax =  -7.29663946722846E-04  1.38026381216514E-01
 cg2d: Sum(rhs),rhsMax =  -7.30481817114202E-04  1.38023155494253E-01
 cg2d: Sum(rhs),rhsMax =  -7.31296544088829E-04  1.38019927422431E-01
 cg2d: Sum(rhs),rhsMax =  -7.32108118774421E-04  1.38016697010467E-01
 cg2d: Sum(rhs),rhsMax =  -7.32916532098385E-04  1.38013464267790E-01
 cg2d: Sum(rhs),rhsMax =  -7.33721775270943E-04  1.38010229203840E-01
 cg2d: Sum(rhs),rhsMax =  -7.34523839425369E-04  1.38006991828062E-01
 cg2d: Sum(rhs),rhsMax =  -7.35322715562456E-04  1.38003752149914E-01
 cg2d: Sum(rhs),rhsMax =  -7.36118395036064E-04  1.38000510178860E-01
 cg2d: Sum(rhs),rhsMax =  -7.36910869021497E-04  1.37997265924373E-01
 cg2d: Sum(rhs),rhsMax =  -7.37700128950807E-04  1.37994019395938E-01
 cg2d: Sum(rhs),rhsMax =  -7.38486165843528E-04  1.37990770603045E-01
 cg2d: Sum(rhs),rhsMax =  -7.39268971191915E-04  1.37987519555196E-01
 cg2d: Sum(rhs),rhsMax =  -7.40048536283676E-04  1.37984266261900E-01
 cg2d: Sum(rhs),rhsMax =  -7.40824852544775E-04  1.37981010732674E-01
 cg2d: Sum(rhs),rhsMax =  -7.41597911442183E-04  1.37977752977046E-01
 cg2d: Sum(rhs),rhsMax =  -7.42367704367781E-04  1.37974493004553E-01
 cg2d: Sum(rhs),rhsMax =  -7.43134222842416E-04  1.37971230824736E-01
(PID.TID 0000.0001)      cg2d_init_res =   5.50454984695216E-04
(PID.TID 0000.0001)      cg2d_iters(min,last) =      -1      69
(PID.TID 0000.0001)      cg2d_last_res =   8.97630415048530E-08
(PID.TID 0000.0001) // =======================================================
(PID.TID 0000.0001) // Begin MONITOR dynamic field statistics
(PID.TID 0000.0001) // =======================================================
(PID.TID 0000.0001) %MON time_tsnumber                =                 18504
(PID.TID 0000.0001) %MON time_secondsf                =   2.2204800000000E+07
(PID.TID 0000.0001) %MON dynstat_eta_max              =   4.9016215518211E-02
(PID.TID 0000.0001) %MON dynstat_eta_min              =  -1.9121855250571E-02
(PID.TID 0000.0001) %MON dynstat_eta_mean             =   5.1317009788949E-07
(PID.TID 0000.0001) %MON dynstat_eta_sd               =   1.6593635719606E-02
(PID.TID 0000.0001) %MON dynstat_eta_del2             =   1.7779830573447E-05
(PID.TID 0000.0001) %MON dynstat_uvel_max             =   3.0934382924778E-02
(PID.TID 0000.0001) %MON dynstat_uvel_min             =  -1.5710139701638E-02
(PID.TID 0000.0001) %MON dynstat_uvel_mean            =   1.3517355301063E-07
(PID.TID 0000.0001) %MON dynstat_uvel_sd              =   6.2126218476248E-03
(PID.TID 0000.0001) %MON dynstat_uvel_del2            =   7.6372849463661E-06
(PID.TID 0000.0001) %MON dynstat_vvel_max             =   8.3132023677725E-02
(PID.TID 0000.0001) %MON dynstat_vvel_min             =  -3.1597940899407E-02
(PID.TID 0000.0001) %MON dynstat_vvel_mean            =   5.1114719680889E-09
(PID.TID 0000.0001) %MON dynstat_vvel_sd              =   1.4670632754641E-02
(PID.TID 0000.0001) %MON dynstat_vvel_del2            =   7.4483996655514E-05
(PID.TID 0000.0001) %MON dynstat_wvel_max             =   8.1515924003634E-09
(PID.TID 0000.0001) %MON dynstat_wvel_min             =  -7.8744725405704E-09
(PID.TID 0000.0001) %MON dynstat_wvel_mean            =   7.8944796971175E-22
(PID.TID 0000.0001) %MON dynstat_wvel_sd              =   3.4542078403459E-09
(PID.TID 0000.0001) %MON dynstat_wvel_del2            =   1.1120117293891E-12
(PID.TID 0000.0001) %MON dynstat_theta_max            =   2.0000000000000E+01
(PID.TID 0000.0001) %MON dynstat_theta_min            =   2.0000000000000E+01
(PID.TID 0000.0001) %MON dynstat_theta_mean           =   2.0000000000000E+01
(PID.TID 0000.0001) %MON dynstat_theta_sd             =   0.0000000000000E+00
(PID.TID 0000.0001) %MON dynstat_theta_del2           =   0.0000000000000E+00
(PID.TID 0000.0001) %MON dynstat_salt_max             =   3.0000000000000E+01
(PID.TID 0000.0001) %MON dynstat_salt_min             =   3.0000000000000E+01
(PID.TID 0000.0001) %MON dynstat_salt_mean            =   3.0000000000000E+01
(PID.TID 0000.0001) %MON dynstat_salt_sd              =   0.0000000000000E+00
(PID.TID 0000.0001) %MON dynstat_salt_del2            =   0.0000000000000E+00
(PID.TID 0000.0001) %MON trAdv_CFL_u_max              =   1.8561043527588E-03
(PID.TID 0000.0001) %MON trAdv_CFL_v_max              =   4.9880210326113E-03
(PID.TID 0000.0001) %MON trAdv_CFL_w_max              =   1.9556077067966E-09
(PID.TID 0000.0001) %MON advcfl_uvel_max              =   1.8560629754867E-03
(PID.TID 0000.0001) %MON advcfl_vvel_max              =   4.9879214206635E-03
(PID.TID 0000.0001) %MON advcfl_wvel_max              =   3.9127643521744E-09
(PID.TID 0000.0001) %MON advcfl_W_hf_max              =   0.0000000000000E+00
(PID.TID 0000.0001) %MON pe_b_mean                    =   2.7011712047184E-07
(PID.TID 0000.0001) %MON ke_max                       =   3.4520215885326E-03
(PID.TID 0000.0001) %MON ke_mean                      =   1.2479686670020E-04
(PID.TID 0000.0001) %MON ke_vol                       =   7.2000000000000E+15
(PID.TID 0000.0001) %MON vort_r_min                   =  -1.4628321774094E-06
(PID.TID 0000.0001) %MON vort_r_max                   =   2.2815307761169E-06
(PID.TID 0000.0001) %MON vort_a_mean                  =   1.0600000000000E-04
(PID.TID 0000.0001) %MON vort_a_sd                    =   3.5365969132479E-06
(PID.TID 0000.0001) %MON vort_p_mean                  =   1.1130000000000E-04
(PID.TID 0000.0001) %MON vort_p_sd                    =   4.1150547176723E-05
(PID.TID 0000.0001) %MON surfExpan_theta_mean         =   1.5788259588589E-20
(PID.TID 0000.0001) %MON surfExpan_salt_mean          =   2.3682389382884E-20
(PID.TID 0000.0001) // =======================================================
(PID.TID 0000.0001) // End MONITOR dynamic field statistics
(PID.TID 0000.0001) // =======================================================
 cg2d: Sum(rhs),rhsMax =  -7.43897458385053E-04  1.37967966447152E-01
 cg2d: Sum(rhs),rhsMax =  -7.44657402499346E-04  1.37964699881359E-01
 cg2d: Sum(rhs),rhsMax =  -7.45414047016811E-04  1.37961431136931E-01
 cg2d: Sum(rhs),rhsMax =  -7.46167383290621E-04  1.37958160223444E-01
 cg2d: Sum(rhs),rhsMax =  -7.46917403072814E-04  1.37954887150487E-01
 cg2d: Sum(rhs),rhsMax =  -7.47664098043951E-04  1.37951611927656E-01
 cg2d: Sum(rhs),rhsMax =  -7.48407460012979E-04  1.37948334564556E-01
 cg2d: Sum(rhs),rhsMax =  -7.49147480713994E-04  1.37945055070799E-01
 cg2d: Sum(rhs),rhsMax =  -7.49884151900990E-04  1.37941773456007E-01
 cg2d: Sum(rhs),rhsMax =  -7.50617465435190E-04  1.37938489729812E-01
 cg2d: Sum(rhs),rhsMax =  -7.51347413177052E-04  1.37935203901850E-01
 cg2d: Sum(rhs),rhsMax =  -7.52073986978973E-04  1.37931915981769E-01
 cg2d: Sum(rhs),rhsMax =  -7.52797178830943E-04  1.37928625979224E-01
 cg2d: Sum(rhs),rhsMax =  -7.53516980753092E-04  1.37925333903878E-01
 cg2d: Sum(rhs),rhsMax =  -7.54233384632682E-04  1.37922039765405E-01
 cg2d: Sum(rhs),rhsMax =  -7.54946382548490E-04  1.37918743573483E-01
 cg2d: Sum(rhs),rhsMax =  -7.55655966617456E-04  1.37915445337801E-01
 cg2d: Sum(rhs),rhsMax =  -7.56362128894249E-04  1.37912145068057E-01
 cg2d: Sum(rhs),rhsMax =  -7.57064861554699E-04  1.37908842773954E-01
 cg2d: Sum(rhs),rhsMax =  -7.57764156696518E-04  1.37905538465206E-01
 cg2d: Sum(rhs),rhsMax =  -7.58460006626238E-04  1.37902232151535E-01
 cg2d: Sum(rhs),rhsMax =  -7.59152403500832E-04  1.37898923842669E-01
 cg2d: Sum(rhs),rhsMax =  -7.59841339635533E-04  1.37895613548346E-01
 cg2d: Sum(rhs),rhsMax =  -7.60526807308841E-04  1.37892301278312E-01
 cg2d: Sum(rhs),rhsMax =  -7.61208798959066E-04  1.37888987042319E-01
 cg2d: Sum(rhs),rhsMax =  -7.61887306837462E-04  1.37885670850132E-01
 cg2d: Sum(rhs),rhsMax =  -7.62562323527947E-04  1.37882352711517E-01
 cg2d: Sum(rhs),rhsMax =  -7.63233841379165E-04  1.37879032636254E-01
 cg2d: Sum(rhs),rhsMax =  -7.63901852932609E-04  1.37875710634127E-01
 cg2d: Sum(rhs),rhsMax =  -7.64566350636047E-04  1.37872386714930E-01
 cg2d: Sum(rhs),rhsMax =  -7.65227327105935E-04  1.37869060888465E-01
 cg2d: Sum(rhs),rhsMax =  -7.65884774856142E-04  1.37865733164540E-01
 cg2d: Sum(rhs),rhsMax =  -7.66538686653374E-04  1.37862403552973E-01
 cg2d: Sum(rhs),rhsMax =  -7.67228468265150E-04  1.37859072092882E-01
 cg2d: Sum(rhs),rhsMax =  -7.67914475217004E-04  1.37855738717022E-01
 cg2d: Sum(rhs),rhsMax =  -7.68596645417098E-04  1.37852403491807E-01
 cg2d: Sum(rhs),rhsMax =  -7.69274972524196E-04  1.37849066429317E-01
 cg2d: Sum(rhs),rhsMax =  -7.69949448194912E-04  1.37845727529655E-01
 cg2d: Sum(rhs),rhsMax =  -7.70620069346792E-04  1.37842386799730E-01
 cg2d: Sum(rhs),rhsMax =  -7.71286832047180E-04  1.37839044249273E-01
 cg2d: Sum(rhs),rhsMax =  -7.71949730421600E-04  1.37835699889006E-01
 cg2d: Sum(rhs),rhsMax =  -7.72608757489008E-04  1.37832353729666E-01
 cg2d: Sum(rhs),rhsMax =  -7.73263906276947E-04  1.37829005781597E-01
 cg2d: Sum(rhs),rhsMax =  -7.73915169965913E-04  1.37825656054764E-01
 cg2d: Sum(rhs),rhsMax =  -7.74562542086859E-04  1.37822304558938E-01
 cg2d: Sum(rhs),rhsMax =  -7.75206016041956E-04  1.37818951303869E-01
 cg2d: Sum(rhs),rhsMax =  -7.75845585394023E-04  1.37815596299373E-01
 cg2d: Sum(rhs),rhsMax =  -7.76481243687752E-04  1.37812239555355E-01
 cg2d: Sum(rhs),rhsMax =  -7.77112984724963E-04  1.37808881081773E-01
 cg2d: Sum(rhs),rhsMax =  -7.77740801993541E-04  1.37805520888605E-01
 cg2d: Sum(rhs),rhsMax =  -7.78364689225266E-04  1.37802158985831E-01
 cg2d: Sum(rhs),rhsMax =  -7.78984640205623E-04  1.37798795383419E-01
 cg2d: Sum(rhs),rhsMax =  -7.79600648476698E-04  1.37795430091333E-01
 cg2d: Sum(rhs),rhsMax =  -7.80212707927547E-04  1.37792063119542E-01
 cg2d: Sum(rhs),rhsMax =  -7.80820812355921E-04  1.37788694478026E-01
 cg2d: Sum(rhs),rhsMax =  -7.81424955548646E-04  1.37785324176771E-01
 cg2d: Sum(rhs),rhsMax =  -7.82025131395754E-04  1.37781952225779E-01
 cg2d: Sum(rhs),rhsMax =  -7.82621333842135E-04  1.37778578635053E-01
 cg2d: Sum(rhs),rhsMax =  -7.83213556809170E-04  1.37775203414607E-01
 cg2d: Sum(rhs),rhsMax =  -7.83801794189074E-04  1.37771826574457E-01
 cg2d: Sum(rhs),rhsMax =  -7.84386040076578E-04  1.37768448124628E-01
 cg2d: Sum(rhs),rhsMax =  -7.84966288387561E-04  1.37765068075149E-01
 cg2d: Sum(rhs),rhsMax =  -7.85542533293824E-04  1.37761686436063E-01
 cg2d: Sum(rhs),rhsMax =  -7.86114768894252E-04  1.37758303217413E-01
 cg2d: Sum(rhs),rhsMax =  -7.86682989209289E-04  1.37754918429255E-01
 cg2d: Sum(rhs),rhsMax =  -7.87247188461211E-04  1.37751532081650E-01
 cg2d: Sum(rhs),rhsMax =  -7.87807360848525E-04  1.37748144184664E-01
 cg2d: Sum(rhs),rhsMax =  -7.88363500533978E-04  1.37744754748372E-01
 cg2d: Sum(rhs),rhsMax =  -7.88915601762143E-04  1.37741363782855E-01
 cg2d: Sum(rhs),rhsMax =  -7.89463658920687E-04  1.37737971298200E-01
 cg2d: Sum(rhs),rhsMax =  -7.90007666248888E-04  1.37734577304502E-01
 cg2d: Sum(rhs),rhsMax =  -7.90547618054842E-04  1.37731181811862E-01
(PID.TID 0000.0001)      cg2d_init_res =   5.48682186003732E-04
(PID.TID 0000.0001)      cg2d_iters(min,last) =      -1      68
(PID.TID 0000.0001)      cg2d_last_res =   9.43278562326494E-08
(PID.TID 0000.0001) // =======================================================
(PID.TID 0000.0001) // Begin MONITOR dynamic field statistics
(PID.TID 0000.0001) // =======================================================
(PID.TID 0000.0001) %MON time_tsnumber                =                 18576
(PID.TID 0000.0001) %MON time_secondsf                =   2.2291200000000E+07
(PID.TID 0000.0001) %MON dynstat_eta_max              =   4.8923701536957E-02
(PID.TID 0000.0001) %MON dynstat_eta_min              =  -1.9073076461667E-02
(PID.TID 0000.0001) %MON dynstat_eta_mean             =   5.4477089639259E-07
(PID.TID 0000.0001) %MON dynstat_eta_sd               =   1.6416277655373E-02
(PID.TID 0000.0001) %MON dynstat_eta_del2             =   1.7773315523046E-05
(PID.TID 0000.0001) %MON dynstat_uvel_max             =   3.0883348640292E-02
(PID.TID 0000.0001) %MON dynstat_uvel_min             =  -1.5649995973002E-02
(PID.TID 0000.0001) %MON dynstat_uvel_mean            =   1.4005523467395E-07
(PID.TID 0000.0001) %MON dynstat_uvel_sd              =   6.1749081281266E-03
(PID.TID 0000.0001) %MON dynstat_uvel_del2            =   7.6123242475177E-06
(PID.TID 0000.0001) %MON dynstat_vvel_max             =   8.3007896134092E-02
(PID.TID 0000.0001) %MON dynstat_vvel_min             =  -3.1659868088360E-02
(PID.TID 0000.0001) %MON dynstat_vvel_mean            =   3.7176183899252E-09
(PID.TID 0000.0001) %MON dynstat_vvel_sd              =   1.4642512947869E-02
(PID.TID 0000.0001) %MON dynstat_vvel_del2            =   7.4414993692166E-05
(PID.TID 0000.0001) %MON dynstat_wvel_max             =   8.3654885788746E-09
(PID.TID 0000.0001) %MON dynstat_wvel_min             =  -7.5938281154959E-09
(PID.TID 0000.0001) %MON dynstat_wvel_mean            =   6.9629145905815E-23
(PID.TID 0000.0001) %MON dynstat_wvel_sd              =   3.4510018647902E-09
(PID.TID 0000.0001) %MON dynstat_wvel_del2            =   1.1136837138778E-12
(PID.TID 0000.0001) %MON dynstat_theta_max            =   2.0000000000000E+01
(PID.TID 0000.0001) %MON dynstat_theta_min            =   2.0000000000000E+01
(PID.TID 0000.0001) %MON dynstat_theta_mean           =   2.0000000000000E+01
(PID.TID 0000.0001) %MON dynstat_theta_sd             =   0.0000000000000E+00
(PID.TID 0000.0001) %MON dynstat_theta_del2           =   0.0000000000000E+00
(PID.TID 0000.0001) %MON dynstat_salt_max             =   3.0000000000000E+01
(PID.TID 0000.0001) %MON dynstat_salt_min             =   3.0000000000000E+01
(PID.TID 0000.0001) %MON dynstat_salt_mean            =   3.0000000000000E+01
(PID.TID 0000.0001) %MON dynstat_salt_sd              =   0.0000000000000E+00
(PID.TID 0000.0001) %MON dynstat_salt_del2            =   0.0000000000000E+00
(PID.TID 0000.0001) %MON trAdv_CFL_u_max              =   1.8530444780672E-03
(PID.TID 0000.0001) %MON trAdv_CFL_v_max              =   4.9805806546664E-03
(PID.TID 0000.0001) %MON trAdv_CFL_w_max              =   2.0068840365646E-09
(PID.TID 0000.0001) %MON advcfl_uvel_max              =   1.8530009184175E-03
(PID.TID 0000.0001) %MON advcfl_vvel_max              =   4.9804737680455E-03
(PID.TID 0000.0001) %MON advcfl_wvel_max              =   4.0154345178598E-09
(PID.TID 0000.0001) %MON advcfl_W_hf_max              =   0.0000000000000E+00
(PID.TID 0000.0001) %MON pe_b_mean                    =   2.6437378308031E-07
(PID.TID 0000.0001) %MON ke_max                       =   3.4419169595955E-03
(PID.TID 0000.0001) %MON ke_mean                      =   1.2416189895415E-04
(PID.TID 0000.0001) %MON ke_vol                       =   7.2000000000000E+15
(PID.TID 0000.0001) %MON vort_r_min                   =  -1.4621629996492E-06
(PID.TID 0000.0001) %MON vort_r_max                   =   2.2772236908026E-06
(PID.TID 0000.0001) %MON vort_a_mean                  =   1.0600000000000E-04
(PID.TID 0000.0001) %MON vort_a_sd                    =   3.5365526042699E-06
(PID.TID 0000.0001) %MON vort_p_mean                  =   1.1130000000000E-04
(PID.TID 0000.0001) %MON vort_p_sd                    =   4.1150566164655E-05
(PID.TID 0000.0001) %MON surfExpan_theta_mean         =   1.3936114607994E-21
(PID.TID 0000.0001) %MON surfExpan_salt_mean          =   2.0901012402301E-21
(PID.TID 0000.0001) // =======================================================
(PID.TID 0000.0001) // End MONITOR dynamic field statistics
(PID.TID 0000.0001) // =======================================================
 cg2d: Sum(rhs),rhsMax =  -7.91083508772380E-04  1.37727784830386E-01
 cg2d: Sum(rhs),rhsMax =  -7.91615332750305E-04  1.37724386370192E-01
 cg2d: Sum(rhs),rhsMax =  -7.92143084408403E-04  1.37720986441399E-01
 cg2d: Sum(rhs),rhsMax =  -7.92666758247730E-04  1.37717585054137E-01
 cg2d: Sum(rhs),rhsMax =  -7.93186348769054E-04  1.37714182218539E-01
 cg2d: Sum(rhs),rhsMax =  -7.93701850446918E-04  1.37710777944747E-01
 cg2d: Sum(rhs),rhsMax =  -7.94213257869110E-04  1.37707372242910E-01
 cg2d: Sum(rhs),rhsMax =  -7.94720565535464E-04  1.37703965123181E-01
 cg2d: Sum(rhs),rhsMax =  -7.95223768204893E-04  1.37700556595722E-01
 cg2d: Sum(rhs),rhsMax =  -7.95722860383508E-04  1.37697146670699E-01
 cg2d: Sum(rhs),rhsMax =  -7.96217836733571E-04  1.37693735358287E-01
 cg2d: Sum(rhs),rhsMax =  -7.96708692034753E-04  1.37690322668666E-01
 cg2d: Sum(rhs),rhsMax =  -7.97195420834783E-04  1.37686908612023E-01
 cg2d: Sum(rhs),rhsMax =  -7.97678018088698E-04  1.37683493198551E-01
 cg2d: Sum(rhs),rhsMax =  -7.98156478399644E-04  1.37680076438449E-01
 cg2d: Sum(rhs),rhsMax =  -7.98630796542711E-04  1.37676658341923E-01
 cg2d: Sum(rhs),rhsMax =  -7.99100967490524E-04  1.37673238919185E-01
 cg2d: Sum(rhs),rhsMax =  -7.99566985966502E-04  1.37669818180455E-01
 cg2d: Sum(rhs),rhsMax =  -8.00028846909900E-04  1.37666396135955E-01
 cg2d: Sum(rhs),rhsMax =  -8.00486545193831E-04  1.37662972795918E-01
 cg2d: Sum(rhs),rhsMax =  -8.00940075775174E-04  1.37659548170579E-01
 cg2d: Sum(rhs),rhsMax =  -8.01389433533281E-04  1.37656122270183E-01
 cg2d: Sum(rhs),rhsMax =  -8.01834613493911E-04  1.37652695104978E-01
 cg2d: Sum(rhs),rhsMax =  -8.02275610578655E-04  1.37649266685220E-01
 cg2d: Sum(rhs),rhsMax =  -8.02712419845983E-04  1.37645837021170E-01
 cg2d: Sum(rhs),rhsMax =  -8.03145036387602E-04  1.37642406123096E-01
 cg2d: Sum(rhs),rhsMax =  -8.03573455150123E-04  1.37638974001271E-01
 cg2d: Sum(rhs),rhsMax =  -8.03997671282128E-04  1.37635540665975E-01
 cg2d: Sum(rhs),rhsMax =  -8.04417679940811E-04  1.37632106127493E-01
 cg2d: Sum(rhs),rhsMax =  -8.04833476094224E-04  1.37628670396117E-01
 cg2d: Sum(rhs),rhsMax =  -8.05245054964730E-04  1.37625233482143E-01
 cg2d: Sum(rhs),rhsMax =  -8.05652411757167E-04  1.37621795395875E-01
 cg2d: Sum(rhs),rhsMax =  -8.06055541618986E-04  1.37618356147622E-01
 cg2d: Sum(rhs),rhsMax =  -8.06454439678504E-04  1.37614915747699E-01
 cg2d: Sum(rhs),rhsMax =  -8.06849101310412E-04  1.37611474206426E-01
 cg2d: Sum(rhs),rhsMax =  -8.07261344117638E-04  1.37608031591367E-01
 cg2d: Sum(rhs),rhsMax =  -8.07669079299044E-04  1.37604587787251E-01
 cg2d: Sum(rhs),rhsMax =  -8.08072290934453E-04  1.37601142876595E-01
 cg2d: Sum(rhs),rhsMax =  -8.08470951838077E-04  1.37597696874774E-01
 cg2d: Sum(rhs),rhsMax =  -8.08865055592333E-04  1.37594249785246E-01
 cg2d: Sum(rhs),rhsMax =  -8.09254603594273E-04  1.37590801614844E-01
 cg2d: Sum(rhs),rhsMax =  -8.09639596149258E-04  1.37587352373541E-01
 cg2d: Sum(rhs),rhsMax =  -8.10020030076253E-04  1.37583902072523E-01
 cg2d: Sum(rhs),rhsMax =  -8.10395900571231E-04  1.37580450723111E-01
 cg2d: Sum(rhs),rhsMax =  -8.10767202646760E-04  1.37576998336193E-01
 cg2d: Sum(rhs),rhsMax =  -8.11133931816118E-04  1.37573544922237E-01
 cg2d: Sum(rhs),rhsMax =  -8.11496084019114E-04  1.37570090491487E-01
 cg2d: Sum(rhs),rhsMax =  -8.11853655158286E-04  1.37566635054158E-01
 cg2d: Sum(rhs),rhsMax =  -8.12206641230558E-04  1.37563178620531E-01
 cg2d: Sum(rhs),rhsMax =  -8.12555038031448E-04  1.37559721200975E-01
 cg2d: Sum(rhs),rhsMax =  -8.12898841584695E-04  1.37556262805918E-01
 cg2d: Sum(rhs),rhsMax =  -8.13238047533098E-04  1.37552803445810E-01
 cg2d: Sum(rhs),rhsMax =  -8.13572651886727E-04  1.37549343131096E-01
 cg2d: Sum(rhs),rhsMax =  -8.13902650568439E-04  1.37545881872211E-01
 cg2d: Sum(rhs),rhsMax =  -8.14228039341359E-04  1.37542419679582E-01
 cg2d: Sum(rhs),rhsMax =  -8.14548814072033E-04  1.37538956563640E-01
 cg2d: Sum(rhs),rhsMax =  -8.14864970760700E-04  1.37535492534820E-01
 cg2d: Sum(rhs),rhsMax =  -8.15176505223116E-04  1.37532027603567E-01
 cg2d: Sum(rhs),rhsMax =  -8.15483413244312E-04  1.37528561780335E-01
 cg2d: Sum(rhs),rhsMax =  -8.15785690718665E-04  1.37525095075581E-01
 cg2d: Sum(rhs),rhsMax =  -8.16083333357971E-04  1.37521627499767E-01
 cg2d: Sum(rhs),rhsMax =  -8.16376337152010E-04  1.37518159063357E-01
 cg2d: Sum(rhs),rhsMax =  -8.16664697964232E-04  1.37514689776822E-01
 cg2d: Sum(rhs),rhsMax =  -8.16948411541268E-04  1.37511219650635E-01
 cg2d: Sum(rhs),rhsMax =  -8.17227473624757E-04  1.37507748695279E-01
 cg2d: Sum(rhs),rhsMax =  -8.17501880068404E-04  1.37504276921238E-01
 cg2d: Sum(rhs),rhsMax =  -8.17771626634815E-04  1.37500804339005E-01
 cg2d: Sum(rhs),rhsMax =  -8.18036709008556E-04  1.37497330959075E-01
 cg2d: Sum(rhs),rhsMax =  -8.18297122931107E-04  1.37493856791949E-01
 cg2d: Sum(rhs),rhsMax =  -8.18552864130855E-04  1.37490381848134E-01
 cg2d: Sum(rhs),rhsMax =  -8.18803928296587E-04  1.37486906138137E-01
 cg2d: Sum(rhs),rhsMax =  -8.19050311081124E-04  1.37483429672473E-01
(PID.TID 0000.0001)      cg2d_init_res =   5.46658506102394E-04
(PID.TID 0000.0001)      cg2d_iters(min,last) =      -1      67
(PID.TID 0000.0001)      cg2d_last_res =   9.10552704655301E-08
(PID.TID 0000.0001) // =======================================================
(PID.TID 0000.0001) // Begin MONITOR dynamic field statistics
(PID.TID 0000.0001) // =======================================================
(PID.TID 0000.0001) %MON time_tsnumber                =                 18648
(PID.TID 0000.0001) %MON time_secondsf                =   2.2377600000000E+07
(PID.TID 0000.0001) %MON dynstat_eta_max              =   4.8799077708717E-02
(PID.TID 0000.0001) %MON dynstat_eta_min              =  -1.9048690881793E-02
(PID.TID 0000.0001) %MON dynstat_eta_mean             =   5.6318113169384E-07
(PID.TID 0000.0001) %MON dynstat_eta_sd               =   1.6241555313367E-02
(PID.TID 0000.0001) %MON dynstat_eta_del2             =   1.7765381910426E-05
(PID.TID 0000.0001) %MON dynstat_uvel_max             =   3.0830032722080E-02
(PID.TID 0000.0001) %MON dynstat_uvel_min             =  -1.5587946403004E-02
(PID.TID 0000.0001) %MON dynstat_uvel_mean            =   1.4307802062956E-07
(PID.TID 0000.0001) %MON dynstat_uvel_sd              =   6.1415946807645E-03
(PID.TID 0000.0001) %MON dynstat_uvel_del2            =   7.5891235411193E-06
(PID.TID 0000.0001) %MON dynstat_vvel_max             =   8.2876085961063E-02
(PID.TID 0000.0001) %MON dynstat_vvel_min             =  -3.1715954480092E-02
(PID.TID 0000.0001) %MON dynstat_vvel_mean            =   2.2753230881119E-09
(PID.TID 0000.0001) %MON dynstat_vvel_sd              =   1.4612927376090E-02
(PID.TID 0000.0001) %MON dynstat_vvel_del2            =   7.4337418134252E-05
(PID.TID 0000.0001) %MON dynstat_wvel_max             =   8.5680620984294E-09
(PID.TID 0000.0001) %MON dynstat_wvel_min             =  -7.2908261834527E-09
(PID.TID 0000.0001) %MON dynstat_wvel_mean            =   4.2167832573862E-21
(PID.TID 0000.0001) %MON dynstat_wvel_sd              =   3.4463323276037E-09
(PID.TID 0000.0001) %MON dynstat_wvel_del2            =   1.1086657885730E-12
(PID.TID 0000.0001) %MON dynstat_theta_max            =   2.0000000000000E+01
(PID.TID 0000.0001) %MON dynstat_theta_min            =   2.0000000000000E+01
(PID.TID 0000.0001) %MON dynstat_theta_mean           =   2.0000000000000E+01
(PID.TID 0000.0001) %MON dynstat_theta_sd             =   0.0000000000000E+00
(PID.TID 0000.0001) %MON dynstat_theta_del2           =   0.0000000000000E+00
(PID.TID 0000.0001) %MON dynstat_salt_max             =   3.0000000000000E+01
(PID.TID 0000.0001) %MON dynstat_salt_min             =   3.0000000000000E+01
(PID.TID 0000.0001) %MON dynstat_salt_mean            =   3.0000000000000E+01
(PID.TID 0000.0001) %MON dynstat_salt_sd              =   0.0000000000000E+00
(PID.TID 0000.0001) %MON dynstat_salt_del2            =   0.0000000000000E+00
(PID.TID 0000.0001) %MON trAdv_CFL_u_max              =   1.8498471440789E-03
(PID.TID 0000.0001) %MON trAdv_CFL_v_max              =   4.9726775777065E-03
(PID.TID 0000.0001) %MON trAdv_CFL_w_max              =   2.0557982215061E-09
(PID.TID 0000.0001) %MON advcfl_uvel_max              =   1.8498019633248E-03
(PID.TID 0000.0001) %MON advcfl_vvel_max              =   4.9725651576638E-03
(PID.TID 0000.0001) %MON advcfl_wvel_max              =   4.1126698072461E-09
(PID.TID 0000.0001) %MON advcfl_W_hf_max              =   0.0000000000000E+00
(PID.TID 0000.0001) %MON pe_b_mean                    =   2.5877614504735E-07
(PID.TID 0000.0001) %MON ke_max                       =   3.4311643591812E-03
(PID.TID 0000.0001) %MON ke_mean                      =   1.2353460893989E-04
(PID.TID 0000.0001) %MON ke_vol                       =   7.2000000000000E+15
(PID.TID 0000.0001) %MON vort_r_min                   =  -1.4614319533111E-06
(PID.TID 0000.0001) %MON vort_r_max                   =   2.2728192205196E-06
(PID.TID 0000.0001) %MON vort_a_mean                  =   1.0600000000000E-04
(PID.TID 0000.0001) %MON vort_a_sd                    =   3.5365054927197E-06
(PID.TID 0000.0001) %MON vort_p_mean                  =   1.1130000000000E-04
(PID.TID 0000.0001) %MON vort_p_sd                    =   4.1150592535159E-05
(PID.TID 0000.0001) %MON surfExpan_theta_mean         =   8.4335501545259E-20
(PID.TID 0000.0001) %MON surfExpan_salt_mean          =   1.2650341021627E-19
(PID.TID 0000.0001) // =======================================================
(PID.TID 0000.0001) // End MONITOR dynamic field statistics
(PID.TID 0000.0001) // =======================================================
 cg2d: Sum(rhs),rhsMax =  -8.19292008190201E-04  1.37479952461663E-01
 cg2d: Sum(rhs),rhsMax =  -8.19529015179669E-04  1.37476474516230E-01
 cg2d: Sum(rhs),rhsMax =  -8.19761327593433E-04  1.37472995846701E-01
 cg2d: Sum(rhs),rhsMax =  -8.19988941094475E-04  1.37469516463611E-01
 cg2d: Sum(rhs),rhsMax =  -8.20211851109776E-04  1.37466036377498E-01
 cg2d: Sum(rhs),rhsMax =  -8.20430053268793E-04  1.37462555598904E-01
 cg2d: Sum(rhs),rhsMax =  -8.20643542893590E-04  1.37459074138376E-01
 cg2d: Sum(rhs),rhsMax =  -8.20852315471756E-04  1.37455592006465E-01
 cg2d: Sum(rhs),rhsMax =  -8.21056366312841E-04  1.37452109213727E-01
 cg2d: Sum(rhs),rhsMax =  -8.21255690860057E-04  1.37448625770724E-01
 cg2d: Sum(rhs),rhsMax =  -8.21450284374390E-04  1.37445141688019E-01
 cg2d: Sum(rhs),rhsMax =  -8.21640142130505E-04  1.37441656976182E-01
 cg2d: Sum(rhs),rhsMax =  -8.21825259332238E-04  1.37438171645786E-01
 cg2d: Sum(rhs),rhsMax =  -8.22005631154385E-04  1.37434685707409E-01
 cg2d: Sum(rhs),rhsMax =  -8.22181252753596E-04  1.37431199171633E-01
 cg2d: Sum(rhs),rhsMax =  -8.22352119100852E-04  1.37427712049046E-01
 cg2d: Sum(rhs),rhsMax =  -8.22518225314690E-04  1.37424224350236E-01
 cg2d: Sum(rhs),rhsMax =  -8.22679566342024E-04  1.37420736085800E-01
 cg2d: Sum(rhs),rhsMax =  -8.22836137023436E-04  1.37417247266335E-01
 cg2d: Sum(rhs),rhsMax =  -8.22987932298576E-04  1.37413757902447E-01
 cg2d: Sum(rhs),rhsMax =  -8.23134946809715E-04  1.37410268004741E-01
 cg2d: Sum(rhs),rhsMax =  -8.23277175419624E-04  1.37406777583829E-01
 cg2d: Sum(rhs),rhsMax =  -8.23420186364425E-04  1.37403286619835E-01
 cg2d: Sum(rhs),rhsMax =  -8.23558167832871E-04  1.37399795191343E-01
 cg2d: Sum(rhs),rhsMax =  -8.23691076293986E-04  1.37396303261623E-01
 cg2d: Sum(rhs),rhsMax =  -8.23818885974031E-04  1.37392810856838E-01
 cg2d: Sum(rhs),rhsMax =  -8.23941591468752E-04  1.37389317984056E-01
 cg2d: Sum(rhs),rhsMax =  -8.24059195448047E-04  1.37385824650755E-01
 cg2d: Sum(rhs),rhsMax =  -8.24171698136238E-04  1.37382330866831E-01
 cg2d: Sum(rhs),rhsMax =  -8.24279095473271E-04  1.37378836643627E-01
 cg2d: Sum(rhs),rhsMax =  -8.24381381024409E-04  1.37375341992666E-01
 cg2d: Sum(rhs),rhsMax =  -8.24478548825174E-04  1.37371846925087E-01
 cg2d: Sum(rhs),rhsMax =  -8.24570593278705E-04  1.37368351451637E-01
 cg2d: Sum(rhs),rhsMax =  -8.24657509328509E-04  1.37364855582857E-01
 cg2d: Sum(rhs),rhsMax =  -8.24739291805598E-04  1.37361359329251E-01
 cg2d: Sum(rhs),rhsMax =  -8.24815935240172E-04  1.37357862701382E-01
 cg2d: Sum(rhs),rhsMax =  -8.24887434281515E-04  1.37354365709882E-01
 cg2d: Sum(rhs),rhsMax =  -8.24953783255649E-04  1.37350868365437E-01
 cg2d: Sum(rhs),rhsMax =  -8.25014976499751E-04  1.37347370678749E-01
 cg2d: Sum(rhs),rhsMax =  -8.25071008214082E-04  1.37343872660524E-01
 cg2d: Sum(rhs),rhsMax =  -8.25121872591593E-04  1.37340374321453E-01
 cg2d: Sum(rhs),rhsMax =  -8.25167563784431E-04  1.37336875672224E-01
 cg2d: Sum(rhs),rhsMax =  -8.25208075671784E-04  1.37333376723522E-01
 cg2d: Sum(rhs),rhsMax =  -8.25243402265189E-04  1.37329877486038E-01
 cg2d: Sum(rhs),rhsMax =  -8.25273537335291E-04  1.37326377970469E-01
 cg2d: Sum(rhs),rhsMax =  -8.25298474621603E-04  1.37322878187516E-01
 cg2d: Sum(rhs),rhsMax =  -8.25318207915608E-04  1.37319378147884E-01
 cg2d: Sum(rhs),rhsMax =  -8.25332730598777E-04  1.37315877862282E-01
 cg2d: Sum(rhs),rhsMax =  -8.25342036222310E-04  1.37312377341421E-01
 cg2d: Sum(rhs),rhsMax =  -8.25346118131429E-04  1.37308876596013E-01
 cg2d: Sum(rhs),rhsMax =  -8.25344969795657E-04  1.37305375636774E-01
 cg2d: Sum(rhs),rhsMax =  -8.25338584189548E-04  1.37301874474423E-01
 cg2d: Sum(rhs),rhsMax =  -8.25326954696210E-04  1.37298373119687E-01
 cg2d: Sum(rhs),rhsMax =  -8.25310074260785E-04  1.37294871583291E-01
 cg2d: Sum(rhs),rhsMax =  -8.25287935868399E-04  1.37291369875967E-01
 cg2d: Sum(rhs),rhsMax =  -8.25257053733919E-04  1.37287868071527E-01
 cg2d: Sum(rhs),rhsMax =  -8.25220705464142E-04  1.37284366066550E-01
 cg2d: Sum(rhs),rhsMax =  -8.25178837449095E-04  1.37280863908161E-01
 cg2d: Sum(rhs),rhsMax =  -8.25131424789109E-04  1.37277361623337E-01
 cg2d: Sum(rhs),rhsMax =  -8.25078462646443E-04  1.37273859223005E-01
 cg2d: Sum(rhs),rhsMax =  -8.25019953356616E-04  1.37270356715563E-01
 cg2d: Sum(rhs),rhsMax =  -8.24955896178138E-04  1.37266854110846E-01
 cg2d: Sum(rhs),rhsMax =  -8.24886286428059E-04  1.37263351420148E-01
 cg2d: Sum(rhs),rhsMax =  -8.24811117332476E-04  1.37259848654979E-01
 cg2d: Sum(rhs),rhsMax =  -8.24730382174125E-04  1.37256345826546E-01
 cg2d: Sum(rhs),rhsMax =  -8.24644075112943E-04  1.37252842945712E-01
 cg2d: Sum(rhs),rhsMax =  -8.24552190723505E-04  1.37249340023163E-01
 cg2d: Sum(rhs),rhsMax =  -8.24454723648864E-04  1.37245837069543E-01
 cg2d: Sum(rhs),rhsMax =  -8.24351668451871E-04  1.37242334095531E-01
 cg2d: Sum(rhs),rhsMax =  -8.24243019435762E-04  1.37238831111865E-01
 cg2d: Sum(rhs),rhsMax =  -8.24128771147657E-04  1.37235328129321E-01
 cg2d: Sum(rhs),rhsMax =  -8.24008917952194E-04  1.37231825158694E-01
(PID.TID 0000.0001)      cg2d_init_res =   5.44414571298039E-04
(PID.TID 0000.0001)      cg2d_iters(min,last) =      -1      65
(PID.TID 0000.0001)      cg2d_last_res =   8.92450287975282E-08
(PID.TID 0000.0001) // =======================================================
(PID.TID 0000.0001) // Begin MONITOR dynamic field statistics
(PID.TID 0000.0001) // =======================================================
(PID.TID 0000.0001) %MON time_tsnumber                =                 18720
(PID.TID 0000.0001) %MON time_secondsf                =   2.2464000000000E+07
(PID.TID 0000.0001) %MON dynstat_eta_max              =   4.8644348906912E-02
(PID.TID 0000.0001) %MON dynstat_eta_min              =  -1.9049264895527E-02
(PID.TID 0000.0001) %MON dynstat_eta_mean             =   5.6530072068627E-07
(PID.TID 0000.0001) %MON dynstat_eta_sd               =   1.6071988967442E-02
(PID.TID 0000.0001) %MON dynstat_eta_del2             =   1.7756060622592E-05
(PID.TID 0000.0001) %MON dynstat_uvel_max             =   3.0775132762895E-02
(PID.TID 0000.0001) %MON dynstat_uvel_min             =  -1.5524760378495E-02
(PID.TID 0000.0001) %MON dynstat_uvel_mean            =   1.4420660823477E-07
(PID.TID 0000.0001) %MON dynstat_uvel_sd              =   6.1132317454207E-03
(PID.TID 0000.0001) %MON dynstat_uvel_del2            =   7.5680169905063E-06
(PID.TID 0000.0001) %MON dynstat_vvel_max             =   8.2738752061956E-02
(PID.TID 0000.0001) %MON dynstat_vvel_min             =  -3.1764871595433E-02
(PID.TID 0000.0001) %MON dynstat_vvel_mean            =   7.9752624632294E-10
(PID.TID 0000.0001) %MON dynstat_vvel_sd              =   1.4582260704031E-02
(PID.TID 0000.0001) %MON dynstat_vvel_del2            =   7.4252154013813E-05
(PID.TID 0000.0001) %MON dynstat_wvel_max             =   8.7370562849173E-09
(PID.TID 0000.0001) %MON dynstat_wvel_min             =  -6.9660676186322E-09
(PID.TID 0000.0001) %MON dynstat_wvel_mean            =  -6.7316780890299E-22
(PID.TID 0000.0001) %MON dynstat_wvel_sd              =   3.4401216447918E-09
(PID.TID 0000.0001) %MON dynstat_wvel_del2            =   1.1114919756958E-12
(PID.TID 0000.0001) %MON dynstat_theta_max            =   2.0000000000000E+01
(PID.TID 0000.0001) %MON dynstat_theta_min            =   2.0000000000000E+01
(PID.TID 0000.0001) %MON dynstat_theta_mean           =   2.0000000000000E+01
(PID.TID 0000.0001) %MON dynstat_theta_sd             =   0.0000000000000E+00
(PID.TID 0000.0001) %MON dynstat_theta_del2           =   0.0000000000000E+00
(PID.TID 0000.0001) %MON dynstat_salt_max             =   3.0000000000000E+01
(PID.TID 0000.0001) %MON dynstat_salt_min             =   3.0000000000000E+01
(PID.TID 0000.0001) %MON dynstat_salt_mean            =   3.0000000000000E+01
(PID.TID 0000.0001) %MON dynstat_salt_sd              =   0.0000000000000E+00
(PID.TID 0000.0001) %MON dynstat_salt_del2            =   0.0000000000000E+00
(PID.TID 0000.0001) %MON trAdv_CFL_u_max              =   1.8465541680976E-03
(PID.TID 0000.0001) %MON trAdv_CFL_v_max              =   4.9644412260920E-03
(PID.TID 0000.0001) %MON trAdv_CFL_w_max              =   2.0962981777353E-09
(PID.TID 0000.0001) %MON advcfl_uvel_max              =   1.8465079657737E-03
(PID.TID 0000.0001) %MON advcfl_vvel_max              =   4.9643251237174E-03
(PID.TID 0000.0001) %MON advcfl_wvel_max              =   4.1937870167603E-09
(PID.TID 0000.0001) %MON advcfl_W_hf_max              =   0.0000000000000E+00
(PID.TID 0000.0001) %MON pe_b_mean                    =   2.5340096192503E-07
(PID.TID 0000.0001) %MON ke_max                       =   3.4199463117727E-03
(PID.TID 0000.0001) %MON ke_mean                      =   1.2292351540355E-04
(PID.TID 0000.0001) %MON ke_vol                       =   7.2000000000000E+15
(PID.TID 0000.0001) %MON vort_r_min                   =  -1.4606366733181E-06
(PID.TID 0000.0001) %MON vort_r_max                   =   2.2683909557834E-06
(PID.TID 0000.0001) %MON vort_a_mean                  =   1.0600000000000E-04
(PID.TID 0000.0001) %MON vort_a_sd                    =   3.5364561492861E-06
(PID.TID 0000.0001) %MON vort_p_mean                  =   1.1130000000000E-04
(PID.TID 0000.0001) %MON vort_p_sd                    =   4.1150626286675E-05
(PID.TID 0000.0001) %MON surfExpan_theta_mean         =  -1.3463561130165E-20
(PID.TID 0000.0001) %MON surfExpan_salt_mean          =  -2.0195341695247E-20
(PID.TID 0000.0001) // =======================================================
(PID.TID 0000.0001) // End MONITOR dynamic field statistics
(PID.TID 0000.0001) // =======================================================
 cg2d: Sum(rhs),rhsMax =  -8.23883454356815E-04  1.37228322210786E-01
 cg2d: Sum(rhs),rhsMax =  -8.23752374865895E-04  1.37224819296390E-01
 cg2d: Sum(rhs),rhsMax =  -8.23615674087811E-04  1.37221316426294E-01
 cg2d: Sum(rhs),rhsMax =  -8.23465309092227E-04  1.37217813356063E-01
 cg2d: Sum(rhs),rhsMax =  -8.23309161251933E-04  1.37214310610072E-01
 cg2d: Sum(rhs),rhsMax =  -8.23147190673195E-04  1.37210807940415E-01
 cg2d: Sum(rhs),rhsMax =  -8.22979376224861E-04  1.37207305356800E-01
 cg2d: Sum(rhs),rhsMax =  -8.22805716992815E-04  1.37203802872706E-01
 cg2d: Sum(rhs),rhsMax =  -8.22626217251211E-04  1.37200300497250E-01
 cg2d: Sum(rhs),rhsMax =  -8.22440878863011E-04  1.37196798240393E-01
 cg2d: Sum(rhs),rhsMax =  -8.22249699969297E-04  1.37193296113358E-01
 cg2d: Sum(rhs),rhsMax =  -8.22052677531776E-04  1.37189794127597E-01
 cg2d: Sum(rhs),rhsMax =  -8.21849808677571E-04  1.37186292294294E-01
 cg2d: Sum(rhs),rhsMax =  -8.21641091187967E-04  1.37182790624343E-01
 cg2d: Sum(rhs),rhsMax =  -8.21426523458169E-04  1.37179289128489E-01
 cg2d: Sum(rhs),rhsMax =  -8.21206104166668E-04  1.37175787817447E-01
 cg2d: Sum(rhs),rhsMax =  -8.20979831878630E-04  1.37172286701963E-01
 cg2d: Sum(rhs),rhsMax =  -8.20747705240097E-04  1.37168785792825E-01
 cg2d: Sum(rhs),rhsMax =  -8.20509723124887E-04  1.37165285100859E-01
 cg2d: Sum(rhs),rhsMax =  -8.20265884498551E-04  1.37161784636902E-01
 cg2d: Sum(rhs),rhsMax =  -8.20004517625806E-04  1.37158284170940E-01
 cg2d: Sum(rhs),rhsMax =  -8.19737183522994E-04  1.37154784179400E-01
 cg2d: Sum(rhs),rhsMax =  -8.19463832635955E-04  1.37151284464802E-01
 cg2d: Sum(rhs),rhsMax =  -8.19184457627963E-04  1.37147785021107E-01
 cg2d: Sum(rhs),rhsMax =  -8.18899062951422E-04  1.37144285860508E-01
 cg2d: Sum(rhs),rhsMax =  -8.18607655688130E-04  1.37140786992516E-01
 cg2d: Sum(rhs),rhsMax =  -8.18310240329647E-04  1.37137288427215E-01
 cg2d: Sum(rhs),rhsMax =  -8.18006819346739E-04  1.37133790175778E-01
 cg2d: Sum(rhs),rhsMax =  -8.17697393977813E-04  1.37130292249639E-01
 cg2d: Sum(rhs),rhsMax =  -8.17381965752611E-04  1.37126794659990E-01
 cg2d: Sum(rhs),rhsMax =  -8.17060536827484E-04  1.37123297417774E-01
 cg2d: Sum(rhs),rhsMax =  -8.16733109714008E-04  1.37119800533785E-01
 cg2d: Sum(rhs),rhsMax =  -8.16399687008842E-04  1.37116304018787E-01
 cg2d: Sum(rhs),rhsMax =  -8.16060271636146E-04  1.37112807883557E-01
 cg2d: Sum(rhs),rhsMax =  -8.15714866358913E-04  1.37109312138912E-01
 cg2d: Sum(rhs),rhsMax =  -8.15363474141768E-04  1.37105816795696E-01
 cg2d: Sum(rhs),rhsMax =  -8.15006097930997E-04  1.37102321864773E-01
 cg2d: Sum(rhs),rhsMax =  -8.14642741234165E-04  1.37098827357011E-01
 cg2d: Sum(rhs),rhsMax =  -8.14273407256404E-04  1.37095333283275E-01
 cg2d: Sum(rhs),rhsMax =  -8.13898099539748E-04  1.37091839654428E-01
 cg2d: Sum(rhs),rhsMax =  -8.13516821795410E-04  1.37088346481331E-01
 cg2d: Sum(rhs),rhsMax =  -8.13129577851443E-04  1.37084853774843E-01
 cg2d: Sum(rhs),rhsMax =  -8.12736371672318E-04  1.37081361545828E-01
 cg2d: Sum(rhs),rhsMax =  -8.12337207328052E-04  1.37077869805151E-01
 cg2d: Sum(rhs),rhsMax =  -8.11932089176171E-04  1.37074378563679E-01
 cg2d: Sum(rhs),rhsMax =  -8.11521021559025E-04  1.37070887832275E-01
 cg2d: Sum(rhs),rhsMax =  -8.11104009144505E-04  1.37067397621810E-01
 cg2d: Sum(rhs),rhsMax =  -8.10681056709445E-04  1.37063907943151E-01
 cg2d: Sum(rhs),rhsMax =  -8.10252169025587E-04  1.37060418807168E-01
 cg2d: Sum(rhs),rhsMax =  -8.09817351305509E-04  1.37056930224732E-01
 cg2d: Sum(rhs),rhsMax =  -8.09376608628931E-04  1.37053442206717E-01
 cg2d: Sum(rhs),rhsMax =  -8.08929946485901E-04  1.37049954764000E-01
 cg2d: Sum(rhs),rhsMax =  -8.08477370306564E-04  1.37046467907455E-01
 cg2d: Sum(rhs),rhsMax =  -8.08018885868672E-04  1.37042981647960E-01
 cg2d: Sum(rhs),rhsMax =  -8.07554498878710E-04  1.37039495996392E-01
 cg2d: Sum(rhs),rhsMax =  -8.07084215421867E-04  1.37036010963633E-01
 cg2d: Sum(rhs),rhsMax =  -8.06589815753899E-04  1.37032526671742E-01
 cg2d: Sum(rhs),rhsMax =  -8.06089352926487E-04  1.37029042882274E-01
 cg2d: Sum(rhs),rhsMax =  -8.05582811465998E-04  1.37025559766510E-01
 cg2d: Sum(rhs),rhsMax =  -8.05070197185920E-04  1.37022077316180E-01
 cg2d: Sum(rhs),rhsMax =  -8.04551516684068E-04  1.37018595539331E-01
 cg2d: Sum(rhs),rhsMax =  -8.04026772173245E-04  1.37015114446099E-01
 cg2d: Sum(rhs),rhsMax =  -8.03495965365834E-04  1.37011634046923E-01
 cg2d: Sum(rhs),rhsMax =  -8.02959098814405E-04  1.37008154352996E-01
 cg2d: Sum(rhs),rhsMax =  -8.02436037883253E-04  1.37004675262725E-01
 cg2d: Sum(rhs),rhsMax =  -8.01907144134167E-04  1.37001197044946E-01
 cg2d: Sum(rhs),rhsMax =  -8.01372436489755E-04  1.36997719535827E-01
 cg2d: Sum(rhs),rhsMax =  -8.00831916694315E-04  1.36994242776021E-01
 cg2d: Sum(rhs),rhsMax =  -8.00285588790682E-04  1.36990766776430E-01
 cg2d: Sum(rhs),rhsMax =  -7.99733462444158E-04  1.36987291548591E-01
 cg2d: Sum(rhs),rhsMax =  -7.99175547056608E-04  1.36983817103769E-01
 cg2d: Sum(rhs),rhsMax =  -7.98611851305299E-04  1.36980343452533E-01
(PID.TID 0000.0001)      cg2d_init_res =   5.41994531050711E-04
(PID.TID 0000.0001)      cg2d_iters(min,last) =      -1      63
(PID.TID 0000.0001)      cg2d_last_res =   8.72801731697986E-08
(PID.TID 0000.0001) // =======================================================
(PID.TID 0000.0001) // Begin MONITOR dynamic field statistics
(PID.TID 0000.0001) // =======================================================
(PID.TID 0000.0001) %MON time_tsnumber                =                 18792
(PID.TID 0000.0001) %MON time_secondsf                =   2.2550400000000E+07
(PID.TID 0000.0001) %MON dynstat_eta_max              =   4.8461946361730E-02
(PID.TID 0000.0001) %MON dynstat_eta_min              =  -1.9075036683458E-02
(PID.TID 0000.0001) %MON dynstat_eta_mean             =   5.4656674126136E-07
(PID.TID 0000.0001) %MON dynstat_eta_sd               =   1.5910095723973E-02
(PID.TID 0000.0001) %MON dynstat_eta_del2             =   1.7745405801829E-05
(PID.TID 0000.0001) %MON dynstat_uvel_max             =   3.0719387396695E-02
(PID.TID 0000.0001) %MON dynstat_uvel_min             =  -1.5461230421768E-02
(PID.TID 0000.0001) %MON dynstat_uvel_mean            =   1.4342974279935E-07
(PID.TID 0000.0001) %MON dynstat_uvel_sd              =   6.0903154916291E-03
(PID.TID 0000.0001) %MON dynstat_uvel_del2            =   7.5493478082130E-06
(PID.TID 0000.0001) %MON dynstat_vvel_max             =   8.2598168915547E-02
(PID.TID 0000.0001) %MON dynstat_vvel_min             =  -3.1805380324321E-02
(PID.TID 0000.0001) %MON dynstat_vvel_mean            =  -7.0249411404997E-10
(PID.TID 0000.0001) %MON dynstat_vvel_sd              =   1.4550913421264E-02
(PID.TID 0000.0001) %MON dynstat_vvel_del2            =   7.4160206868199E-05
(PID.TID 0000.0001) %MON dynstat_wvel_max             =   8.8711387539752E-09
(PID.TID 0000.0001) %MON dynstat_wvel_min             =  -6.6227286777576E-09
(PID.TID 0000.0001) %MON dynstat_wvel_mean            =   1.6893914612916E-22
(PID.TID 0000.0001) %MON dynstat_wvel_sd              =   3.4323825054441E-09
(PID.TID 0000.0001) %MON dynstat_wvel_del2            =   1.1033930264320E-12
(PID.TID 0000.0001) %MON dynstat_theta_max            =   2.0000000000000E+01
(PID.TID 0000.0001) %MON dynstat_theta_min            =   2.0000000000000E+01
(PID.TID 0000.0001) %MON dynstat_theta_mean           =   2.0000000000000E+01
(PID.TID 0000.0001) %MON dynstat_theta_sd             =   0.0000000000000E+00
(PID.TID 0000.0001) %MON dynstat_theta_del2           =   0.0000000000000E+00
(PID.TID 0000.0001) %MON dynstat_salt_max             =   3.0000000000000E+01
(PID.TID 0000.0001) %MON dynstat_salt_min             =   3.0000000000000E+01
(PID.TID 0000.0001) %MON dynstat_salt_mean            =   3.0000000000000E+01
(PID.TID 0000.0001) %MON dynstat_salt_sd              =   0.0000000000000E+00
(PID.TID 0000.0001) %MON dynstat_salt_del2            =   0.0000000000000E+00
(PID.TID 0000.0001) %MON trAdv_CFL_u_max              =   1.8432098379416E-03
(PID.TID 0000.0001) %MON trAdv_CFL_v_max              =   4.9560079855446E-03
(PID.TID 0000.0001) %MON trAdv_CFL_w_max              =   2.1288030230899E-09
(PID.TID 0000.0001) %MON advcfl_uvel_max              =   1.8431632438017E-03
(PID.TID 0000.0001) %MON advcfl_vvel_max              =   4.9558901349328E-03
(PID.TID 0000.0001) %MON advcfl_wvel_max              =   4.2581466019081E-09
(PID.TID 0000.0001) %MON advcfl_W_hf_max              =   0.0000000000000E+00
(PID.TID 0000.0001) %MON pe_b_mean                    =   2.4832165446606E-07
(PID.TID 0000.0001) %MON ke_max                       =   3.4084539267632E-03
(PID.TID 0000.0001) %MON ke_mean                      =   1.2233700356562E-04
(PID.TID 0000.0001) %MON ke_vol                       =   7.2000000000000E+15
(PID.TID 0000.0001) %MON vort_r_min                   =  -1.4597934367429E-06
(PID.TID 0000.0001) %MON vort_r_max                   =   2.2640136701237E-06
(PID.TID 0000.0001) %MON vort_a_mean                  =   1.0600000000000E-04
(PID.TID 0000.0001) %MON vort_a_sd                    =   3.5364051837289E-06
(PID.TID 0000.0001) %MON vort_p_mean                  =   1.1130000000000E-04
(PID.TID 0000.0001) %MON vort_p_sd                    =   4.1150667325056E-05
(PID.TID 0000.0001) %MON surfExpan_theta_mean         =   3.3790248377130E-21
(PID.TID 0000.0001) %MON surfExpan_salt_mean          =   5.0686165141577E-21
(PID.TID 0000.0001) // =======================================================
(PID.TID 0000.0001) // End MONITOR dynamic field statistics
(PID.TID 0000.0001) // =======================================================
 cg2d: Sum(rhs),rhsMax =  -7.98042383137272E-04  1.36976870605327E-01
 cg2d: Sum(rhs),rhsMax =  -7.97467150621276E-04  1.36973398572794E-01
 cg2d: Sum(rhs),rhsMax =  -7.96886162256601E-04  1.36969927365768E-01
 cg2d: Sum(rhs),rhsMax =  -7.96299426684079E-04  1.36966456995181E-01
 cg2d: Sum(rhs),rhsMax =  -7.95706952622047E-04  1.36962987471993E-01
 cg2d: Sum(rhs),rhsMax =  -7.95108748835838E-04  1.36959518807154E-01
 cg2d: Sum(rhs),rhsMax =  -7.94504824265403E-04  1.36956051011587E-01
 cg2d: Sum(rhs),rhsMax =  -7.93895187714964E-04  1.36952584096199E-01
 cg2d: Sum(rhs),rhsMax =  -7.93279848314373E-04  1.36949118071880E-01
 cg2d: Sum(rhs),rhsMax =  -7.92658815069299E-04  1.36945652949517E-01
 cg2d: Sum(rhs),rhsMax =  -7.92032097175476E-04  1.36942188740001E-01
 cg2d: Sum(rhs),rhsMax =  -7.91399703861624E-04  1.36938725454222E-01
 cg2d: Sum(rhs),rhsMax =  -7.90761644286009E-04  1.36935263103076E-01
 cg2d: Sum(rhs),rhsMax =  -7.90117927876438E-04  1.36931801697461E-01
 cg2d: Sum(rhs),rhsMax =  -7.89468563901312E-04  1.36928341248273E-01
 cg2d: Sum(rhs),rhsMax =  -7.88813561733510E-04  1.36924881766410E-01
 cg2d: Sum(rhs),rhsMax =  -7.88152930760278E-04  1.36921423262772E-01
 cg2d: Sum(rhs),rhsMax =  -7.87486680584731E-04  1.36917965748255E-01
 cg2d: Sum(rhs),rhsMax =  -7.86814820678673E-04  1.36914509233760E-01
 cg2d: Sum(rhs),rhsMax =  -7.86137360483115E-04  1.36911053730186E-01
 cg2d: Sum(rhs),rhsMax =  -7.85454309522766E-04  1.36907599248429E-01
 cg2d: Sum(rhs),rhsMax =  -7.84765677299224E-04  1.36904145799390E-01
 cg2d: Sum(rhs),rhsMax =  -7.84071473383652E-04  1.36900693393963E-01
 cg2d: Sum(rhs),rhsMax =  -7.83371707329704E-04  1.36897242043046E-01
 cg2d: Sum(rhs),rhsMax =  -7.82666388716956E-04  1.36893791757535E-01
 cg2d: Sum(rhs),rhsMax =  -7.81984690526169E-04  1.36890342797452E-01
 cg2d: Sum(rhs),rhsMax =  -7.81297890210847E-04  1.36886894699341E-01
 cg2d: Sum(rhs),rhsMax =  -7.80606003058130E-04  1.36883447675137E-01
 cg2d: Sum(rhs),rhsMax =  -7.79909016552844E-04  1.36880001763599E-01
 cg2d: Sum(rhs),rhsMax =  -7.79206942386825E-04  1.36876556972232E-01
 cg2d: Sum(rhs),rhsMax =  -7.78499800973694E-04  1.36873113312433E-01
 cg2d: Sum(rhs),rhsMax =  -7.77787610747884E-04  1.36869670795425E-01
 cg2d: Sum(rhs),rhsMax =  -7.77070386200306E-04  1.36866229431660E-01
 cg2d: Sum(rhs),rhsMax =  -7.76348139679159E-04  1.36862789231531E-01
 cg2d: Sum(rhs),rhsMax =  -7.75620883948690E-04  1.36859350205674E-01
 cg2d: Sum(rhs),rhsMax =  -7.74888631855115E-04  1.36855912364938E-01
 cg2d: Sum(rhs),rhsMax =  -7.74151396596821E-04  1.36852475720263E-01
 cg2d: Sum(rhs),rhsMax =  -7.73409191311773E-04  1.36849040282613E-01
 cg2d: Sum(rhs),rhsMax =  -7.72662028763936E-04  1.36845606062930E-01
 cg2d: Sum(rhs),rhsMax =  -7.71943973795070E-04  1.36842173321215E-01
 cg2d: Sum(rhs),rhsMax =  -7.71221500345216E-04  1.36838741573669E-01
 cg2d: Sum(rhs),rhsMax =  -7.70494534061027E-04  1.36835311069823E-01
 cg2d: Sum(rhs),rhsMax =  -7.69763084826874E-04  1.36831881831830E-01
 cg2d: Sum(rhs),rhsMax =  -7.69027163773426E-04  1.36828453866390E-01
 cg2d: Sum(rhs),rhsMax =  -7.68286791058835E-04  1.36825027185090E-01
 cg2d: Sum(rhs),rhsMax =  -7.67541983678024E-04  1.36821601799125E-01
 cg2d: Sum(rhs),rhsMax =  -7.66792754092096E-04  1.36818177718812E-01
 cg2d: Sum(rhs),rhsMax =  -7.66039112807876E-04  1.36814754954497E-01
 cg2d: Sum(rhs),rhsMax =  -7.65281069941092E-04  1.36811333516816E-01
 cg2d: Sum(rhs),rhsMax =  -7.64518636161702E-04  1.36807913416633E-01
 cg2d: Sum(rhs),rhsMax =  -7.63751822139763E-04  1.36804494664902E-01
 cg2d: Sum(rhs),rhsMax =  -7.62980638338618E-04  1.36801077272587E-01
 cg2d: Sum(rhs),rhsMax =  -7.62244519700676E-04  1.36797661188163E-01
 cg2d: Sum(rhs),rhsMax =  -7.61504448302124E-04  1.36794246539184E-01
 cg2d: Sum(rhs),rhsMax =  -7.60760432854017E-04  1.36790833286571E-01
 cg2d: Sum(rhs),rhsMax =  -7.60012445080472E-04  1.36787421439784E-01
 cg2d: Sum(rhs),rhsMax =  -7.59260491915604E-04  1.36784011006485E-01
 cg2d: Sum(rhs),rhsMax =  -7.58504587798381E-04  1.36780601998922E-01
 cg2d: Sum(rhs),rhsMax =  -7.57744743902361E-04  1.36777194428198E-01
 cg2d: Sum(rhs),rhsMax =  -7.56980967021494E-04  1.36773788304548E-01
 cg2d: Sum(rhs),rhsMax =  -7.56213261800379E-04  1.36770383638256E-01
 cg2d: Sum(rhs),rhsMax =  -7.55441632818616E-04  1.36766980439932E-01
 cg2d: Sum(rhs),rhsMax =  -7.54666085018975E-04  1.36763578720422E-01
 cg2d: Sum(rhs),rhsMax =  -7.53886623593430E-04  1.36760178490671E-01
 cg2d: Sum(rhs),rhsMax =  -7.53103253599629E-04  1.36756779761629E-01
 cg2d: Sum(rhs),rhsMax =  -7.52315979724857E-04  1.36753382544215E-01
 cg2d: Sum(rhs),rhsMax =  -7.51524806363225E-04  1.36749986849305E-01
 cg2d: Sum(rhs),rhsMax =  -7.50729737791423E-04  1.36746592687752E-01
 cg2d: Sum(rhs),rhsMax =  -7.49930778034490E-04  1.36743200070399E-01
 cg2d: Sum(rhs),rhsMax =  -7.49127930943042E-04  1.36739809008088E-01
 cg2d: Sum(rhs),rhsMax =  -7.48321200256868E-04  1.36736419511665E-01
 cg2d: Sum(rhs),rhsMax =  -7.47510589462685E-04  1.36733031591981E-01
(PID.TID 0000.0001)      cg2d_init_res =   5.39459210381690E-04
(PID.TID 0000.0001)      cg2d_iters(min,last) =      -1      66
(PID.TID 0000.0001)      cg2d_last_res =   9.73987745092755E-08
(PID.TID 0000.0001) // =======================================================
(PID.TID 0000.0001) // Begin MONITOR dynamic field statistics
(PID.TID 0000.0001) // =======================================================
(PID.TID 0000.0001) %MON time_tsnumber                =                 18864
(PID.TID 0000.0001) %MON time_secondsf                =   2.2636800000000E+07
(PID.TID 0000.0001) %MON dynstat_eta_max              =   4.8254701960289E-02
(PID.TID 0000.0001) %MON dynstat_eta_min              =  -1.9125904169128E-02
(PID.TID 0000.0001) %MON dynstat_eta_mean             =   5.1047746581546E-07
(PID.TID 0000.0001) %MON dynstat_eta_sd               =   1.5758348325149E-02
(PID.TID 0000.0001) %MON dynstat_eta_del2             =   1.7733494097115E-05
(PID.TID 0000.0001) %MON dynstat_uvel_max             =   3.0663566326407E-02
(PID.TID 0000.0001) %MON dynstat_uvel_min             =  -1.5398161077180E-02
(PID.TID 0000.0001) %MON dynstat_uvel_mean            =   1.4075972223372E-07
(PID.TID 0000.0001) %MON dynstat_uvel_sd              =   6.0732774776956E-03
(PID.TID 0000.0001) %MON dynstat_uvel_del2            =   7.5334617386928E-06
(PID.TID 0000.0001) %MON dynstat_vvel_max             =   8.2456694832983E-02
(PID.TID 0000.0001) %MON dynstat_vvel_min             =  -3.1836349430631E-02
(PID.TID 0000.0001) %MON dynstat_vvel_mean            =  -2.2111362886053E-09
(PID.TID 0000.0001) %MON dynstat_vvel_sd              =   1.4519296405628E-02
(PID.TID 0000.0001) %MON dynstat_vvel_del2            =   7.4062691766592E-05
(PID.TID 0000.0001) %MON dynstat_wvel_max             =   8.9985066750160E-09
(PID.TID 0000.0001) %MON dynstat_wvel_min             =  -6.2680879337131E-09
(PID.TID 0000.0001) %MON dynstat_wvel_mean            =  -1.7123410442663E-22
(PID.TID 0000.0001) %MON dynstat_wvel_sd              =   3.4232152103563E-09
(PID.TID 0000.0001) %MON dynstat_wvel_del2            =   1.0952206447825E-12
(PID.TID 0000.0001) %MON dynstat_theta_max            =   2.0000000000000E+01
(PID.TID 0000.0001) %MON dynstat_theta_min            =   2.0000000000000E+01
(PID.TID 0000.0001) %MON dynstat_theta_mean           =   2.0000000000000E+01
(PID.TID 0000.0001) %MON dynstat_theta_sd             =   0.0000000000000E+00
(PID.TID 0000.0001) %MON dynstat_theta_del2           =   0.0000000000000E+00
(PID.TID 0000.0001) %MON dynstat_salt_max             =   3.0000000000000E+01
(PID.TID 0000.0001) %MON dynstat_salt_min             =   3.0000000000000E+01
(PID.TID 0000.0001) %MON dynstat_salt_mean            =   3.0000000000000E+01
(PID.TID 0000.0001) %MON dynstat_salt_sd              =   0.0000000000000E+00
(PID.TID 0000.0001) %MON dynstat_salt_del2            =   0.0000000000000E+00
(PID.TID 0000.0001) %MON trAdv_CFL_u_max              =   1.8398603143227E-03
(PID.TID 0000.0001) %MON trAdv_CFL_v_max              =   4.9475192981720E-03
(PID.TID 0000.0001) %MON trAdv_CFL_w_max              =   2.1593368990194E-09
(PID.TID 0000.0001) %MON advcfl_uvel_max              =   1.8398139795844E-03
(PID.TID 0000.0001) %MON advcfl_vvel_max              =   4.9474016899790E-03
(PID.TID 0000.0001) %MON advcfl_wvel_max              =   4.3192832040077E-09
(PID.TID 0000.0001) %MON advcfl_W_hf_max              =   0.0000000000000E+00
(PID.TID 0000.0001) %MON pe_b_mean                    =   2.4360735689556E-07
(PID.TID 0000.0001) %MON ke_max                       =   3.3968840732096E-03
(PID.TID 0000.0001) %MON ke_mean                      =   1.2178321149890E-04
(PID.TID 0000.0001) %MON ke_vol                       =   7.2000000000000E+15
(PID.TID 0000.0001) %MON vort_r_min                   =  -1.4592020279728E-06
(PID.TID 0000.0001) %MON vort_r_max                   =   2.2597623043085E-06
(PID.TID 0000.0001) %MON vort_a_mean                  =   1.0600000000000E-04
(PID.TID 0000.0001) %MON vort_a_sd                    =   3.5363532367905E-06
(PID.TID 0000.0001) %MON vort_p_mean                  =   1.1130000000000E-04
(PID.TID 0000.0001) %MON vort_p_sd                    =   4.1150715463414E-05
(PID.TID 0000.0001) %MON surfExpan_theta_mean         =  -3.4260002242566E-21
(PID.TID 0000.0001) %MON surfExpan_salt_mean          =  -5.1385266412278E-21
(PID.TID 0000.0001) // =======================================================
(PID.TID 0000.0001) // End MONITOR dynamic field statistics
(PID.TID 0000.0001) // =======================================================
 cg2d: Sum(rhs),rhsMax =  -7.46696102143334E-04  1.36729645259886E-01
 cg2d: Sum(rhs),rhsMax =  -7.45877741465139E-04  1.36726260526225E-01
 cg2d: Sum(rhs),rhsMax =  -7.45055510611293E-04  1.36722877401843E-01
 cg2d: Sum(rhs),rhsMax =  -7.44229412624877E-04  1.36719495897582E-01
 cg2d: Sum(rhs),rhsMax =  -7.43399450398739E-04  1.36716116024283E-01
 cg2d: Sum(rhs),rhsMax =  -7.42565626717012E-04  1.36712737792785E-01
 cg2d: Sum(rhs),rhsMax =  -7.41770565561408E-04  1.36709361269692E-01
 cg2d: Sum(rhs),rhsMax =  -7.40971944044172E-04  1.36705986351829E-01
 cg2d: Sum(rhs),rhsMax =  -7.40169678347794E-04  1.36702613108313E-01
 cg2d: Sum(rhs),rhsMax =  -7.39363764365786E-04  1.36699241548260E-01
 cg2d: Sum(rhs),rhsMax =  -7.38554203942854E-04  1.36695871683620E-01
 cg2d: Sum(rhs),rhsMax =  -7.37741004831602E-04  1.36692503527035E-01
 cg2d: Sum(rhs),rhsMax =  -7.36924172033460E-04  1.36689137089380E-01
 cg2d: Sum(rhs),rhsMax =  -7.36103706997600E-04  1.36685772380753E-01
 cg2d: Sum(rhs),rhsMax =  -7.35279609396155E-04  1.36682409411377E-01
 cg2d: Sum(rhs),rhsMax =  -7.34451879182277E-04  1.36679048191832E-01
 cg2d: Sum(rhs),rhsMax =  -7.33620516902582E-04  1.36675688732947E-01
 cg2d: Sum(rhs),rhsMax =  -7.32785523220626E-04  1.36672331045647E-01
 cg2d: Sum(rhs),rhsMax =  -7.31946899169782E-04  1.36668975140851E-01
 cg2d: Sum(rhs),rhsMax =  -7.31104645554518E-04  1.36665621029424E-01
 cg2d: Sum(rhs),rhsMax =  -7.30258763252162E-04  1.36662268722187E-01
 cg2d: Sum(rhs),rhsMax =  -7.29409252858227E-04  1.36658918229931E-01
 cg2d: Sum(rhs),rhsMax =  -7.28556115425888E-04  1.36655569563440E-01
 cg2d: Sum(rhs),rhsMax =  -7.27699351595712E-04  1.36652222733503E-01
 cg2d: Sum(rhs),rhsMax =  -7.26838962331102E-04  1.36648877750917E-01
 cg2d: Sum(rhs),rhsMax =  -7.25974948552545E-04  1.36645534626481E-01
 cg2d: Sum(rhs),rhsMax =  -7.25107311166252E-04  1.36642193370996E-01
 cg2d: Sum(rhs),rhsMax =  -7.24236051153081E-04  1.36638853995255E-01
 cg2d: Sum(rhs),rhsMax =  -7.23361169432410E-04  1.36635516510049E-01
 cg2d: Sum(rhs),rhsMax =  -7.22482667170860E-04  1.36632180926164E-01
 cg2d: Sum(rhs),rhsMax =  -7.21600545216588E-04  1.36628847254382E-01
 cg2d: Sum(rhs),rhsMax =  -7.20714804904729E-04  1.36625515505487E-01
 cg2d: Sum(rhs),rhsMax =  -7.19825447280466E-04  1.36622185690258E-01
 cg2d: Sum(rhs),rhsMax =  -7.18932473590305E-04  1.36618857819473E-01
 cg2d: Sum(rhs),rhsMax =  -7.18035884945515E-04  1.36615531903908E-01
 cg2d: Sum(rhs),rhsMax =  -7.17135682766416E-04  1.36612207954335E-01
 cg2d: Sum(rhs),rhsMax =  -7.16231868187504E-04  1.36608885981523E-01
 cg2d: Sum(rhs),rhsMax =  -7.15324442737210E-04  1.36605565996238E-01
 cg2d: Sum(rhs),rhsMax =  -7.14413407659187E-04  1.36602248009241E-01
 cg2d: Sum(rhs),rhsMax =  -7.13498764536193E-04  1.36598932031296E-01
 cg2d: Sum(rhs),rhsMax =  -7.12580514747077E-04  1.36595618073158E-01
 cg2d: Sum(rhs),rhsMax =  -7.11658659832952E-04  1.36592306145583E-01
 cg2d: Sum(rhs),rhsMax =  -7.10733201419918E-04  1.36588996259324E-01
 cg2d: Sum(rhs),rhsMax =  -7.09804141182665E-04  1.36585688425129E-01
 cg2d: Sum(rhs),rhsMax =  -7.08871480803426E-04  1.36582382653744E-01
 cg2d: Sum(rhs),rhsMax =  -7.07935221908638E-04  1.36579078955914E-01
 cg2d: Sum(rhs),rhsMax =  -7.06995366303686E-04  1.36575777342378E-01
 cg2d: Sum(rhs),rhsMax =  -7.06051915859817E-04  1.36572477823874E-01
 cg2d: Sum(rhs),rhsMax =  -7.05104872412161E-04  1.36569180411135E-01
 cg2d: Sum(rhs),rhsMax =  -7.04154237938372E-04  1.36565885114893E-01
 cg2d: Sum(rhs),rhsMax =  -7.03200014370361E-04  1.36562591945875E-01
 cg2d: Sum(rhs),rhsMax =  -7.02242203732887E-04  1.36559300914805E-01
 cg2d: Sum(rhs),rhsMax =  -7.01280808123371E-04  1.36556012032406E-01
 cg2d: Sum(rhs),rhsMax =  -7.00315829698211E-04  1.36552725309395E-01
 cg2d: Sum(rhs),rhsMax =  -6.99347270423705E-04  1.36549440756488E-01
 cg2d: Sum(rhs),rhsMax =  -6.98375132803418E-04  1.36546158384397E-01
 cg2d: Sum(rhs),rhsMax =  -6.97399418911166E-04  1.36542878203829E-01
 cg2d: Sum(rhs),rhsMax =  -6.96420131076198E-04  1.36539600225491E-01
 cg2d: Sum(rhs),rhsMax =  -6.95437271629035E-04  1.36536324460083E-01
 cg2d: Sum(rhs),rhsMax =  -6.94450843042573E-04  1.36533050918303E-01
 cg2d: Sum(rhs),rhsMax =  -6.93460847804001E-04  1.36529779610848E-01
 cg2d: Sum(rhs),rhsMax =  -6.92467288417031E-04  1.36526510548408E-01
 cg2d: Sum(rhs),rhsMax =  -6.91470167376159E-04  1.36523243741671E-01
 cg2d: Sum(rhs),rhsMax =  -6.90469487279723E-04  1.36519979201321E-01
 cg2d: Sum(rhs),rhsMax =  -6.89465250826192E-04  1.36516716938041E-01
 cg2d: Sum(rhs),rhsMax =  -6.88457460742770E-04  1.36513456962505E-01
 cg2d: Sum(rhs),rhsMax =  -6.87446119717459E-04  1.36510199285390E-01
 cg2d: Sum(rhs),rhsMax =  -6.86431230464512E-04  1.36506943917364E-01
 cg2d: Sum(rhs),rhsMax =  -6.85412795950398E-04  1.36503690869094E-01
 cg2d: Sum(rhs),rhsMax =  -6.84390818987372E-04  1.36500440151243E-01
 cg2d: Sum(rhs),rhsMax =  -6.83365302496419E-04  1.36497191774469E-01
 cg2d: Sum(rhs),rhsMax =  -6.82336249466706E-04  1.36493945749429E-01
(PID.TID 0000.0001)      cg2d_init_res =   5.36883065300757E-04
(PID.TID 0000.0001)      cg2d_iters(min,last) =      -1      67
(PID.TID 0000.0001)      cg2d_last_res =   9.93992818680781E-08
(PID.TID 0000.0001) // =======================================================
(PID.TID 0000.0001) // Begin MONITOR dynamic field statistics
(PID.TID 0000.0001) // =======================================================
(PID.TID 0000.0001) %MON time_tsnumber                =                 18936
(PID.TID 0000.0001) %MON time_secondsf                =   2.2723200000000E+07
(PID.TID 0000.0001) %MON dynstat_eta_max              =   4.8025802510146E-02
(PID.TID 0000.0001) %MON dynstat_eta_min              =  -1.9201430858132E-02
(PID.TID 0000.0001) %MON dynstat_eta_mean             =   4.6495807641859E-07
(PID.TID 0000.0001) %MON dynstat_eta_sd               =   1.5619130240205E-02
(PID.TID 0000.0001) %MON dynstat_eta_del2             =   1.7720423598399E-05
(PID.TID 0000.0001) %MON dynstat_uvel_max             =   3.0608459653206E-02
(PID.TID 0000.0001) %MON dynstat_uvel_min             =  -1.5336357969142E-02
(PID.TID 0000.0001) %MON dynstat_uvel_mean            =   1.3623880669604E-07
(PID.TID 0000.0001) %MON dynstat_uvel_sd              =   6.0624744147811E-03
(PID.TID 0000.0001) %MON dynstat_uvel_del2            =   7.5206985361780E-06
(PID.TID 0000.0001) %MON dynstat_vvel_max             =   8.2316737263766E-02
(PID.TID 0000.0001) %MON dynstat_vvel_min             =  -3.1856773039119E-02
(PID.TID 0000.0001) %MON dynstat_vvel_mean            =  -3.7148293901049E-09
(PID.TID 0000.0001) %MON dynstat_vvel_sd              =   1.4487825561566E-02
(PID.TID 0000.0001) %MON dynstat_vvel_del2            =   7.3960819879381E-05
(PID.TID 0000.0001) %MON dynstat_wvel_max             =   9.0865567612855E-09
(PID.TID 0000.0001) %MON dynstat_wvel_min             =  -5.9092161705485E-09
(PID.TID 0000.0001) %MON dynstat_wvel_mean            =   3.6116994629588E-22
(PID.TID 0000.0001) %MON dynstat_wvel_sd              =   3.4127967701443E-09
(PID.TID 0000.0001) %MON dynstat_wvel_del2            =   1.0985133783426E-12
(PID.TID 0000.0001) %MON dynstat_theta_max            =   2.0000000000000E+01
(PID.TID 0000.0001) %MON dynstat_theta_min            =   2.0000000000000E+01
(PID.TID 0000.0001) %MON dynstat_theta_mean           =   2.0000000000000E+01
(PID.TID 0000.0001) %MON dynstat_theta_sd             =   0.0000000000000E+00
(PID.TID 0000.0001) %MON dynstat_theta_del2           =   0.0000000000000E+00
(PID.TID 0000.0001) %MON dynstat_salt_max             =   3.0000000000000E+01
(PID.TID 0000.0001) %MON dynstat_salt_min             =   3.0000000000000E+01
(PID.TID 0000.0001) %MON dynstat_salt_mean            =   3.0000000000000E+01
(PID.TID 0000.0001) %MON dynstat_salt_sd              =   0.0000000000000E+00
(PID.TID 0000.0001) %MON dynstat_salt_del2            =   0.0000000000000E+00
(PID.TID 0000.0001) %MON trAdv_CFL_u_max              =   1.8365529904684E-03
(PID.TID 0000.0001) %MON trAdv_CFL_v_max              =   4.9391195848147E-03
(PID.TID 0000.0001) %MON trAdv_CFL_w_max              =   2.1804217025994E-09
(PID.TID 0000.0001) %MON advcfl_uvel_max              =   1.8365075791923E-03
(PID.TID 0000.0001) %MON advcfl_vvel_max              =   4.9390042358259E-03
(PID.TID 0000.0001) %MON advcfl_wvel_max              =   4.3615472454170E-09
(PID.TID 0000.0001) %MON advcfl_W_hf_max              =   0.0000000000000E+00
(PID.TID 0000.0001) %MON pe_b_mean                    =   2.3932204231282E-07
(PID.TID 0000.0001) %MON ke_max                       =   3.3854363987765E-03
(PID.TID 0000.0001) %MON ke_mean                      =   1.2126992039581E-04
(PID.TID 0000.0001) %MON ke_vol                       =   7.2000000000000E+15
(PID.TID 0000.0001) %MON vort_r_min                   =  -1.4585453291723E-06
(PID.TID 0000.0001) %MON vort_r_max                   =   2.2557108626218E-06
(PID.TID 0000.0001) %MON vort_a_mean                  =   1.0600000000000E-04
(PID.TID 0000.0001) %MON vort_a_sd                    =   3.5363009715725E-06
(PID.TID 0000.0001) %MON vort_p_mean                  =   1.1130000000000E-04
(PID.TID 0000.0001) %MON vort_p_sd                    =   4.1150770424041E-05
(PID.TID 0000.0001) %MON surfExpan_theta_mean         =   7.2239695706836E-21
(PID.TID 0000.0001) %MON surfExpan_salt_mean          =   1.0835263550588E-20
(PID.TID 0000.0001) // =======================================================
(PID.TID 0000.0001) // End MONITOR dynamic field statistics
(PID.TID 0000.0001) // =======================================================
 cg2d: Sum(rhs),rhsMax =  -6.81303662906521E-04  1.36490702086773E-01
 cg2d: Sum(rhs),rhsMax =  -6.80267545905588E-04  1.36487460797149E-01
 cg2d: Sum(rhs),rhsMax =  -6.79227901481005E-04  1.36484221891202E-01
 cg2d: Sum(rhs),rhsMax =  -6.78184732876033E-04  1.36480985379570E-01
 cg2d: Sum(rhs),rhsMax =  -6.77194090846501E-04  1.36477751169497E-01
 cg2d: Sum(rhs),rhsMax =  -6.76200113802657E-04  1.36474519491769E-01
 cg2d: Sum(rhs),rhsMax =  -6.75202858331528E-04  1.36471290229232E-01
 cg2d: Sum(rhs),rhsMax =  -6.74202289942309E-04  1.36468063397396E-01
 cg2d: Sum(rhs),rhsMax =  -6.73198413385540E-04  1.36464839011914E-01
 cg2d: Sum(rhs),rhsMax =  -6.72191238065067E-04  1.36461617085974E-01
 cg2d: Sum(rhs),rhsMax =  -6.71180770947327E-04  1.36458397630139E-01
 cg2d: Sum(rhs),rhsMax =  -6.70167016473848E-04  1.36455180654205E-01
 cg2d: Sum(rhs),rhsMax =  -6.69149978012144E-04  1.36451966168136E-01
 cg2d: Sum(rhs),rhsMax =  -6.68129659474319E-04  1.36448754182276E-01
 cg2d: Sum(rhs),rhsMax =  -6.67106065083932E-04  1.36445544707240E-01
 cg2d: Sum(rhs),rhsMax =  -6.66079199457672E-04  1.36442337753745E-01
 cg2d: Sum(rhs),rhsMax =  -6.65049067295085E-04  1.36439133332500E-01
 cg2d: Sum(rhs),rhsMax =  -6.64015673163086E-04  1.36435931454145E-01
 cg2d: Sum(rhs),rhsMax =  -6.62979021605895E-04  1.36432732129265E-01
 cg2d: Sum(rhs),rhsMax =  -6.62004441997020E-04  1.36429535256594E-01
 cg2d: Sum(rhs),rhsMax =  -6.61026970629217E-04  1.36426341085302E-01
 cg2d: Sum(rhs),rhsMax =  -6.60046463224730E-04  1.36423149487337E-01
 cg2d: Sum(rhs),rhsMax =  -6.59062960580692E-04  1.36419960476878E-01
 cg2d: Sum(rhs),rhsMax =  -6.58076466852976E-04  1.36416774071033E-01
 cg2d: Sum(rhs),rhsMax =  -6.57086993943522E-04  1.36413590283442E-01
 cg2d: Sum(rhs),rhsMax =  -6.56094548976450E-04  1.36410409124503E-01
 cg2d: Sum(rhs),rhsMax =  -6.55099137735953E-04  1.36407230604028E-01
 cg2d: Sum(rhs),rhsMax =  -6.54100765380520E-04  1.36404054731920E-01
 cg2d: Sum(rhs),rhsMax =  -6.53099437144077E-04  1.36400881518496E-01
 cg2d: Sum(rhs),rhsMax =  -6.52095158997838E-04  1.36397710974309E-01
 cg2d: Sum(rhs),rhsMax =  -6.51087937095470E-04  1.36394543110011E-01
 cg2d: Sum(rhs),rhsMax =  -6.50077777670087E-04  1.36391377936233E-01
 cg2d: Sum(rhs),rhsMax =  -6.49064686765251E-04  1.36388215463542E-01
 cg2d: Sum(rhs),rhsMax =  -6.48048670466816E-04  1.36385055702452E-01
 cg2d: Sum(rhs),rhsMax =  -6.47029734694273E-04  1.36381898663443E-01
 cg2d: Sum(rhs),rhsMax =  -6.46007885682024E-04  1.36378744356994E-01
 cg2d: Sum(rhs),rhsMax =  -6.44983129557550E-04  1.36375592793585E-01
 cg2d: Sum(rhs),rhsMax =  -6.43955472511875E-04  1.36372443983706E-01
 cg2d: Sum(rhs),rhsMax =  -6.42924920715702E-04  1.36369297937851E-01
 cg2d: Sum(rhs),rhsMax =  -6.41891480594263E-04  1.36366154666505E-01
 cg2d: Sum(rhs),rhsMax =  -6.40855158254714E-04  1.36363014180149E-01
 cg2d: Sum(rhs),rhsMax =  -6.39815960040006E-04  1.36359876489255E-01
 cg2d: Sum(rhs),rhsMax =  -6.38773892335173E-04  1.36356741604289E-01
 cg2d: Sum(rhs),rhsMax =  -6.37728961389986E-04  1.36353609535710E-01
 cg2d: Sum(rhs),rhsMax =  -6.36681173688892E-04  1.36350480293974E-01
 cg2d: Sum(rhs),rhsMax =  -6.35630535646260E-04  1.36347353889532E-01
 cg2d: Sum(rhs),rhsMax =  -6.34577053619097E-04  1.36344230332833E-01
 cg2d: Sum(rhs),rhsMax =  -6.33520734109909E-04  1.36341109634318E-01
 cg2d: Sum(rhs),rhsMax =  -6.32461583572908E-04  1.36337991804422E-01
 cg2d: Sum(rhs),rhsMax =  -6.31399608570758E-04  1.36334876853578E-01
 cg2d: Sum(rhs),rhsMax =  -6.30334815645055E-04  1.36331764792211E-01
 cg2d: Sum(rhs),rhsMax =  -6.29267211307378E-04  1.36328655630741E-01
 cg2d: Sum(rhs),rhsMax =  -6.28196802113221E-04  1.36325549379583E-01
 cg2d: Sum(rhs),rhsMax =  -6.27123594759730E-04  1.36322446049148E-01
 cg2d: Sum(rhs),rhsMax =  -6.26047595862751E-04  1.36319345649839E-01
 cg2d: Sum(rhs),rhsMax =  -6.24968811887753E-04  1.36316248192058E-01
 cg2d: Sum(rhs),rhsMax =  -6.23887249771449E-04  1.36313153686196E-01
 cg2d: Sum(rhs),rhsMax =  -6.22802916041350E-04  1.36310062142643E-01
 cg2d: Sum(rhs),rhsMax =  -6.21715817434160E-04  1.36306973571782E-01
 cg2d: Sum(rhs),rhsMax =  -6.20625960693605E-04  1.36303887983990E-01
 cg2d: Sum(rhs),rhsMax =  -6.19533352569093E-04  1.36300805389640E-01
 cg2d: Sum(rhs),rhsMax =  -6.18437999784329E-04  1.36297725799098E-01
 cg2d: Sum(rhs),rhsMax =  -6.17339909290155E-04  1.36294649222725E-01
 cg2d: Sum(rhs),rhsMax =  -6.16239087797898E-04  1.36291575670876E-01
 cg2d: Sum(rhs),rhsMax =  -6.15135542133838E-04  1.36288505153901E-01
 cg2d: Sum(rhs),rhsMax =  -6.14029279118343E-04  1.36285437682145E-01
 cg2d: Sum(rhs),rhsMax =  -6.12920305679774E-04  1.36282373265944E-01
 cg2d: Sum(rhs),rhsMax =  -6.11808628658675E-04  1.36279311915634E-01
 cg2d: Sum(rhs),rhsMax =  -6.10694254977519E-04  1.36276253641539E-01
 cg2d: Sum(rhs),rhsMax =  -6.09577191608354E-04  1.36273198453984E-01
 cg2d: Sum(rhs),rhsMax =  -6.08457445439127E-04  1.36270146363280E-01
 cg2d: Sum(rhs),rhsMax =  -6.07335023436915E-04  1.36267097379740E-01
(PID.TID 0000.0001)      cg2d_init_res =   5.34345670886254E-04
(PID.TID 0000.0001)      cg2d_iters(min,last) =      -1      69
(PID.TID 0000.0001)      cg2d_last_res =   9.97785176660032E-08
(PID.TID 0000.0001) // =======================================================
(PID.TID 0000.0001) // Begin MONITOR dynamic field statistics
(PID.TID 0000.0001) // =======================================================
(PID.TID 0000.0001) %MON time_tsnumber                =                 19008
(PID.TID 0000.0001) %MON time_secondsf                =   2.2809600000000E+07
(PID.TID 0000.0001) %MON dynstat_eta_max              =   4.7778735235659E-02
(PID.TID 0000.0001) %MON dynstat_eta_min              =  -1.9300860641944E-02
(PID.TID 0000.0001) %MON dynstat_eta_mean             =   4.1302310742905E-07
(PID.TID 0000.0001) %MON dynstat_eta_sd               =   1.5494687413802E-02
(PID.TID 0000.0001) %MON dynstat_eta_del2             =   1.7706312541113E-05
(PID.TID 0000.0001) %MON dynstat_uvel_max             =   3.0554867424719E-02
(PID.TID 0000.0001) %MON dynstat_uvel_min             =  -1.5276616359931E-02
(PID.TID 0000.0001) %MON dynstat_uvel_mean            =   1.2992932887463E-07
(PID.TID 0000.0001) %MON dynstat_uvel_sd              =   6.0581782051413E-03
(PID.TID 0000.0001) %MON dynstat_uvel_del2            =   7.5113817009186E-06
(PID.TID 0000.0001) %MON dynstat_vvel_max             =   8.2180718208840E-02
(PID.TID 0000.0001) %MON dynstat_vvel_min             =  -3.1865786785237E-02
(PID.TID 0000.0001) %MON dynstat_vvel_mean            =  -5.1999478938408E-09
(PID.TID 0000.0001) %MON dynstat_vvel_sd              =   1.4456916632748E-02
(PID.TID 0000.0001) %MON dynstat_vvel_del2            =   7.3855883610960E-05
(PID.TID 0000.0001) %MON dynstat_wvel_max             =   9.1399254579937E-09
(PID.TID 0000.0001) %MON dynstat_wvel_min             =  -5.5529665848007E-09
(PID.TID 0000.0001) %MON dynstat_wvel_mean            =   5.2624980324051E-22
(PID.TID 0000.0001) %MON dynstat_wvel_sd              =   3.4013712054765E-09
(PID.TID 0000.0001) %MON dynstat_wvel_del2            =   1.0905119350004E-12
(PID.TID 0000.0001) %MON dynstat_theta_max            =   2.0000000000000E+01
(PID.TID 0000.0001) %MON dynstat_theta_min            =   2.0000000000000E+01
(PID.TID 0000.0001) %MON dynstat_theta_mean           =   2.0000000000000E+01
(PID.TID 0000.0001) %MON dynstat_theta_sd             =   0.0000000000000E+00
(PID.TID 0000.0001) %MON dynstat_theta_del2           =   0.0000000000000E+00
(PID.TID 0000.0001) %MON dynstat_salt_max             =   3.0000000000000E+01
(PID.TID 0000.0001) %MON dynstat_salt_min             =   3.0000000000000E+01
(PID.TID 0000.0001) %MON dynstat_salt_mean            =   3.0000000000000E+01
(PID.TID 0000.0001) %MON dynstat_salt_sd              =   0.0000000000000E+00
(PID.TID 0000.0001) %MON dynstat_salt_del2            =   0.0000000000000E+00
(PID.TID 0000.0001) %MON trAdv_CFL_u_max              =   1.8333358655653E-03
(PID.TID 0000.0001) %MON trAdv_CFL_v_max              =   4.9309541671201E-03
(PID.TID 0000.0001) %MON trAdv_CFL_w_max              =   2.1935642948098E-09
(PID.TID 0000.0001) %MON advcfl_uvel_max              =   1.8332920454831E-03
(PID.TID 0000.0001) %MON advcfl_vvel_max              =   4.9308430925304E-03
(PID.TID 0000.0001) %MON advcfl_wvel_max              =   4.3871642198370E-09
(PID.TID 0000.0001) %MON advcfl_W_hf_max              =   0.0000000000000E+00
(PID.TID 0000.0001) %MON pe_b_mean                    =   2.3552371679581E-07
(PID.TID 0000.0001) %MON ke_max                       =   3.3743104119980E-03
(PID.TID 0000.0001) %MON ke_mean                      =   1.2080444783995E-04
(PID.TID 0000.0001) %MON ke_vol                       =   7.2000000000000E+15
(PID.TID 0000.0001) %MON vort_r_min                   =  -1.4578279127406E-06
(PID.TID 0000.0001) %MON vort_r_max                   =   2.2519313122552E-06
(PID.TID 0000.0001) %MON vort_a_mean                  =   1.0600000000000E-04
(PID.TID 0000.0001) %MON vort_a_sd                    =   3.5362490648921E-06
(PID.TID 0000.0001) %MON vort_p_mean                  =   1.1130000000000E-04
(PID.TID 0000.0001) %MON vort_p_sd                    =   4.1150831839947E-05
(PID.TID 0000.0001) %MON surfExpan_theta_mean         =   1.0523887933939E-20
(PID.TID 0000.0001) %MON surfExpan_salt_mean          =   1.5786127960382E-20
(PID.TID 0000.0001) // =======================================================
(PID.TID 0000.0001) // End MONITOR dynamic field statistics
(PID.TID 0000.0001) // =======================================================
 cg2d: Sum(rhs),rhsMax =  -6.06209932634544E-04  1.36264051513667E-01
 cg2d: Sum(rhs),rhsMax =  -6.05082179894895E-04  1.36261008775358E-01
 cg2d: Sum(rhs),rhsMax =  -6.04026104597783E-04  1.36257969183447E-01
 cg2d: Sum(rhs),rhsMax =  -6.02967556844241E-04  1.36254932735970E-01
 cg2d: Sum(rhs),rhsMax =  -6.01906716459330E-04  1.36251899445795E-01
 cg2d: Sum(rhs),rhsMax =  -6.00843535051034E-04  1.36248869316689E-01
 cg2d: Sum(rhs),rhsMax =  -5.99778016633405E-04  1.36245842364869E-01
 cg2d: Sum(rhs),rhsMax =  -5.98710171222605E-04  1.36242818603461E-01
 cg2d: Sum(rhs),rhsMax =  -5.97640007371393E-04  1.36239798042761E-01
 cg2d: Sum(rhs),rhsMax =  -5.96567532155810E-04  1.36236780692393E-01
 cg2d: Sum(rhs),rhsMax =  -5.95492752500672E-04  1.36233766562127E-01
 cg2d: Sum(rhs),rhsMax =  -5.94415675810491E-04  1.36230755662035E-01
 cg2d: Sum(rhs),rhsMax =  -5.93336309746806E-04  1.36227748002394E-01
 cg2d: Sum(rhs),rhsMax =  -5.92254662267235E-04  1.36224743593534E-01
 cg2d: Sum(rhs),rhsMax =  -5.91170741184721E-04  1.36221742445762E-01
 cg2d: Sum(rhs),rhsMax =  -5.90084554167414E-04  1.36218744569323E-01
 cg2d: Sum(rhs),rhsMax =  -5.88996108719517E-04  1.36215749974417E-01
 cg2d: Sum(rhs),rhsMax =  -5.87905412604524E-04  1.36212758671223E-01
 cg2d: Sum(rhs),rhsMax =  -5.86812473364716E-04  1.36209770669911E-01
 cg2d: Sum(rhs),rhsMax =  -5.85717298605599E-04  1.36206785980660E-01
 cg2d: Sum(rhs),rhsMax =  -5.84619896044891E-04  1.36203804613648E-01
 cg2d: Sum(rhs),rhsMax =  -5.83520273467818E-04  1.36200826579056E-01
 cg2d: Sum(rhs),rhsMax =  -5.82418438388261E-04  1.36197851887060E-01
 cg2d: Sum(rhs),rhsMax =  -5.81314398578517E-04  1.36194880547825E-01
 cg2d: Sum(rhs),rhsMax =  -5.80208161727968E-04  1.36191912571505E-01
 cg2d: Sum(rhs),rhsMax =  -5.79099735409992E-04  1.36188947968250E-01
 cg2d: Sum(rhs),rhsMax =  -5.78070918026414E-04  1.36185986445100E-01
 cg2d: Sum(rhs),rhsMax =  -5.77040374602043E-04  1.36183028612939E-01
 cg2d: Sum(rhs),rhsMax =  -5.76007910129246E-04  1.36180074194335E-01
 cg2d: Sum(rhs),rhsMax =  -5.74973606128511E-04  1.36177123181687E-01
 cg2d: Sum(rhs),rhsMax =  -5.73937462445392E-04  1.36174175591342E-01
 cg2d: Sum(rhs),rhsMax =  -5.72899492386214E-04  1.36171231435322E-01
 cg2d: Sum(rhs),rhsMax =  -5.71859702746797E-04  1.36168290724056E-01
 cg2d: Sum(rhs),rhsMax =  -5.70818101091903E-04  1.36165353467107E-01
 cg2d: Sum(rhs),rhsMax =  -5.69774694403551E-04  1.36162419674205E-01
 cg2d: Sum(rhs),rhsMax =  -5.68729490538126E-04  1.36159489355314E-01
 cg2d: Sum(rhs),rhsMax =  -5.67682497200264E-04  1.36156562520549E-01
 cg2d: Sum(rhs),rhsMax =  -5.66633722536023E-04  1.36153639180064E-01
 cg2d: Sum(rhs),rhsMax =  -5.65583174306783E-04  1.36150719343981E-01
 cg2d: Sum(rhs),rhsMax =  -5.64530860310131E-04  1.36147803022374E-01
 cg2d: Sum(rhs),rhsMax =  -5.63476788156630E-04  1.36144890225280E-01
 cg2d: Sum(rhs),rhsMax =  -5.62420965496814E-04  1.36141980962721E-01
 cg2d: Sum(rhs),rhsMax =  -5.61363400019070E-04  1.36139075244715E-01
 cg2d: Sum(rhs),rhsMax =  -5.60304099427529E-04  1.36136173081280E-01
 cg2d: Sum(rhs),rhsMax =  -5.59243071425102E-04  1.36133274482435E-01
 cg2d: Sum(rhs),rhsMax =  -5.58180323587864E-04  1.36130379458198E-01
 cg2d: Sum(rhs),rhsMax =  -5.57115863657034E-04  1.36127488018578E-01
 cg2d: Sum(rhs),rhsMax =  -5.56049699230350E-04  1.36124600173578E-01
 cg2d: Sum(rhs),rhsMax =  -5.54981837909192E-04  1.36121715933188E-01
 cg2d: Sum(rhs),rhsMax =  -5.53912287352968E-04  1.36118835307392E-01
 cg2d: Sum(rhs),rhsMax =  -5.52841055096639E-04  1.36115958306164E-01
 cg2d: Sum(rhs),rhsMax =  -5.51768148683070E-04  1.36113084939472E-01
 cg2d: Sum(rhs),rhsMax =  -5.50693575803261E-04  1.36110215217276E-01
 cg2d: Sum(rhs),rhsMax =  -5.49617343881851E-04  1.36107349149533E-01
 cg2d: Sum(rhs),rhsMax =  -5.48539460528117E-04  1.36104486746187E-01
 cg2d: Sum(rhs),rhsMax =  -5.47459933348198E-04  1.36101628017179E-01
 cg2d: Sum(rhs),rhsMax =  -5.46378769699972E-04  1.36098772972442E-01
 cg2d: Sum(rhs),rhsMax =  -5.45295977156174E-04  1.36095921621901E-01
 cg2d: Sum(rhs),rhsMax =  -5.44211563275046E-04  1.36093073975472E-01
 cg2d: Sum(rhs),rhsMax =  -5.43125535436752E-04  1.36090230043067E-01
 cg2d: Sum(rhs),rhsMax =  -5.42037901059876E-04  1.36087389834587E-01
 cg2d: Sum(rhs),rhsMax =  -5.40948667637313E-04  1.36084553359928E-01
 cg2d: Sum(rhs),rhsMax =  -5.39857842673497E-04  1.36081720628976E-01
 cg2d: Sum(rhs),rhsMax =  -5.38765433450702E-04  1.36078891651612E-01
 cg2d: Sum(rhs),rhsMax =  -5.37671447478441E-04  1.36076066437706E-01
 cg2d: Sum(rhs),rhsMax =  -5.36575892048648E-04  1.36073244997125E-01
 cg2d: Sum(rhs),rhsMax =  -5.35478774548089E-04  1.36070427339724E-01
 cg2d: Sum(rhs),rhsMax =  -5.34380102366707E-04  1.36067613475352E-01
 cg2d: Sum(rhs),rhsMax =  -5.33279882841915E-04  1.36064803413853E-01
 cg2d: Sum(rhs),rhsMax =  -5.32178123263507E-04  1.36061997165057E-01
 cg2d: Sum(rhs),rhsMax =  -5.31074831022487E-04  1.36059194738792E-01
 cg2d: Sum(rhs),rhsMax =  -5.29970013351936E-04  1.36056396144876E-01
(PID.TID 0000.0001)      cg2d_init_res =   5.31936499788610E-04
(PID.TID 0000.0001)      cg2d_iters(min,last) =      -1      71
(PID.TID 0000.0001)      cg2d_last_res =   9.19181204507557E-08
(PID.TID 0000.0001) // =======================================================
(PID.TID 0000.0001) // Begin MONITOR dynamic field statistics
(PID.TID 0000.0001) // =======================================================
(PID.TID 0000.0001) %MON time_tsnumber                =                 19080
(PID.TID 0000.0001) %MON time_secondsf                =   2.2896000000000E+07
(PID.TID 0000.0001) %MON dynstat_eta_max              =   4.7517245770997E-02
(PID.TID 0000.0001) %MON dynstat_eta_min              =  -1.9423121105931E-02
(PID.TID 0000.0001) %MON dynstat_eta_mean             =   3.5976903987595E-07
(PID.TID 0000.0001) %MON dynstat_eta_sd               =   1.5387079092392E-02
(PID.TID 0000.0001) %MON dynstat_eta_del2             =   1.7691297751521E-05
(PID.TID 0000.0001) %MON dynstat_uvel_max             =   3.0503588471132E-02
(PID.TID 0000.0001) %MON dynstat_uvel_min             =  -1.5219710312060E-02
(PID.TID 0000.0001) %MON dynstat_uvel_mean            =   1.2191801606735E-07
(PID.TID 0000.0001) %MON dynstat_uvel_sd              =   6.0605674631526E-03
(PID.TID 0000.0001) %MON dynstat_uvel_del2            =   7.5058069131029E-06
(PID.TID 0000.0001) %MON dynstat_vvel_max             =   8.2051040281970E-02
(PID.TID 0000.0001) %MON dynstat_vvel_min             =  -3.1862681194286E-02
(PID.TID 0000.0001) %MON dynstat_vvel_mean            =  -6.6532010922200E-09
(PID.TID 0000.0001) %MON dynstat_vvel_sd              =   1.4426980163573E-02
(PID.TID 0000.0001) %MON dynstat_vvel_del2            =   7.3749240606499E-05
(PID.TID 0000.0001) %MON dynstat_wvel_max             =   9.2003319145715E-09
(PID.TID 0000.0001) %MON dynstat_wvel_min             =  -5.1892994990340E-09
(PID.TID 0000.0001) %MON dynstat_wvel_mean            =  -3.6706124875410E-21
(PID.TID 0000.0001) %MON dynstat_wvel_sd              =   3.3892329541741E-09
(PID.TID 0000.0001) %MON dynstat_wvel_del2            =   1.0844830730891E-12
(PID.TID 0000.0001) %MON dynstat_theta_max            =   2.0000000000000E+01
(PID.TID 0000.0001) %MON dynstat_theta_min            =   2.0000000000000E+01
(PID.TID 0000.0001) %MON dynstat_theta_mean           =   2.0000000000000E+01
(PID.TID 0000.0001) %MON dynstat_theta_sd             =   0.0000000000000E+00
(PID.TID 0000.0001) %MON dynstat_theta_del2           =   0.0000000000000E+00
(PID.TID 0000.0001) %MON dynstat_salt_max             =   3.0000000000000E+01
(PID.TID 0000.0001) %MON dynstat_salt_min             =   3.0000000000000E+01
(PID.TID 0000.0001) %MON dynstat_salt_mean            =   3.0000000000000E+01
(PID.TID 0000.0001) %MON dynstat_salt_sd              =   0.0000000000000E+00
(PID.TID 0000.0001) %MON dynstat_salt_del2            =   0.0000000000000E+00
(PID.TID 0000.0001) %MON trAdv_CFL_u_max              =   1.8302568749752E-03
(PID.TID 0000.0001) %MON trAdv_CFL_v_max              =   4.9231672323958E-03
(PID.TID 0000.0001) %MON trAdv_CFL_w_max              =   2.2080320702727E-09
(PID.TID 0000.0001) %MON advcfl_uvel_max              =   1.8302153082679E-03
(PID.TID 0000.0001) %MON advcfl_vvel_max              =   4.9230624169182E-03
(PID.TID 0000.0001) %MON advcfl_wvel_max              =   4.4161593189943E-09
(PID.TID 0000.0001) %MON advcfl_W_hf_max              =   0.0000000000000E+00
(PID.TID 0000.0001) %MON pe_b_mean                    =   2.3226372126559E-07
(PID.TID 0000.0001) %MON ke_max                       =   3.3637027526790E-03
(PID.TID 0000.0001) %MON ke_mean                      =   1.2039354869331E-04
(PID.TID 0000.0001) %MON ke_vol                       =   7.2000000000000E+15
(PID.TID 0000.0001) %MON vort_r_min                   =  -1.4570562058312E-06
(PID.TID 0000.0001) %MON vort_r_max                   =   2.2484926697757E-06
(PID.TID 0000.0001) %MON vort_a_mean                  =   1.0600000000000E-04
(PID.TID 0000.0001) %MON vort_a_sd                    =   3.5361981983680E-06
(PID.TID 0000.0001) %MON vort_p_mean                  =   1.1130000000000E-04
(PID.TID 0000.0001) %MON vort_p_sd                    =   4.1150899258568E-05
(PID.TID 0000.0001) %MON surfExpan_theta_mean         =  -7.3404196301554E-20
(PID.TID 0000.0001) %MON surfExpan_salt_mean          =  -1.1010696552047E-19
(PID.TID 0000.0001) // =======================================================
(PID.TID 0000.0001) // End MONITOR dynamic field statistics
(PID.TID 0000.0001) // =======================================================
 cg2d: Sum(rhs),rhsMax =  -5.28863677531694E-04  1.36053601393119E-01
 cg2d: Sum(rhs),rhsMax =  -5.27755830856789E-04  1.36050810493323E-01
 cg2d: Sum(rhs),rhsMax =  -5.26646480434090E-04  1.36048023455283E-01
 cg2d: Sum(rhs),rhsMax =  -5.25535633721047E-04  1.36045240288785E-01
 cg2d: Sum(rhs),rhsMax =  -5.24423297861776E-04  1.36042461003608E-01
 cg2d: Sum(rhs),rhsMax =  -5.23309479906091E-04  1.36039685609523E-01
 cg2d: Sum(rhs),rhsMax =  -5.22194187201818E-04  1.36036914116293E-01
 cg2d: Sum(rhs),rhsMax =  -5.21077426860287E-04  1.36034146533671E-01
 cg2d: Sum(rhs),rhsMax =  -5.19959206062760E-04  1.36031382871405E-01
 cg2d: Sum(rhs),rhsMax =  -5.18839531995764E-04  1.36028623139233E-01
 cg2d: Sum(rhs),rhsMax =  -5.17718411670362E-04  1.36025867346886E-01
 cg2d: Sum(rhs),rhsMax =  -5.16595852309064E-04  1.36023115504087E-01
 cg2d: Sum(rhs),rhsMax =  -5.15471860946654E-04  1.36020367620548E-01
 cg2d: Sum(rhs),rhsMax =  -5.14346444663972E-04  1.36017623705977E-01
 cg2d: Sum(rhs),rhsMax =  -5.13219610529175E-04  1.36014883770070E-01
 cg2d: Sum(rhs),rhsMax =  -5.12091365570001E-04  1.36012147822518E-01
 cg2d: Sum(rhs),rhsMax =  -5.10961716831808E-04  1.36009415873003E-01
 cg2d: Sum(rhs),rhsMax =  -5.09830671274788E-04  1.36006687931196E-01
 cg2d: Sum(rhs),rhsMax =  -5.08698236012965E-04  1.36003964006763E-01
 cg2d: Sum(rhs),rhsMax =  -5.07564417951179E-04  1.36001244109360E-01
 cg2d: Sum(rhs),rhsMax =  -5.06429224090693E-04  1.35998528248635E-01
 cg2d: Sum(rhs),rhsMax =  -5.05292661463265E-04  1.35995816434227E-01
 cg2d: Sum(rhs),rhsMax =  -5.04154736823428E-04  1.35993108675770E-01
 cg2d: Sum(rhs),rhsMax =  -5.03015457190759E-04  1.35990404982883E-01
 cg2d: Sum(rhs),rhsMax =  -5.01874829458439E-04  1.35987705365183E-01
 cg2d: Sum(rhs),rhsMax =  -5.00732860517952E-04  1.35985009832274E-01
 cg2d: Sum(rhs),rhsMax =  -4.99589557234771E-04  1.35982318393754E-01
 cg2d: Sum(rhs),rhsMax =  -4.98444926518182E-04  1.35979631059213E-01
 cg2d: Sum(rhs),rhsMax =  -4.97298975097162E-04  1.35976947838230E-01
 cg2d: Sum(rhs),rhsMax =  -4.96151709874554E-04  1.35974268740376E-01
 cg2d: Sum(rhs),rhsMax =  -4.95003137680193E-04  1.35971593775215E-01
 cg2d: Sum(rhs),rhsMax =  -4.93853265246677E-04  1.35968922952300E-01
 cg2d: Sum(rhs),rhsMax =  -4.92702099403336E-04  1.35966256281179E-01
 cg2d: Sum(rhs),rhsMax =  -4.91549646865322E-04  1.35963593771385E-01
 cg2d: Sum(rhs),rhsMax =  -4.90395914438222E-04  1.35960935432450E-01
 cg2d: Sum(rhs),rhsMax =  -4.89240908732745E-04  1.35958281273892E-01
 cg2d: Sum(rhs),rhsMax =  -4.88084636640674E-04  1.35955631305221E-01
 cg2d: Sum(rhs),rhsMax =  -4.86927104807121E-04  1.35952985535940E-01
 cg2d: Sum(rhs),rhsMax =  -4.85768319890087E-04  1.35950343975540E-01
 cg2d: Sum(rhs),rhsMax =  -4.84608288490535E-04  1.35947706633508E-01
 cg2d: Sum(rhs),rhsMax =  -4.83447017378400E-04  1.35945073519317E-01
 cg2d: Sum(rhs),rhsMax =  -4.82284513027138E-04  1.35942444642433E-01
 cg2d: Sum(rhs),rhsMax =  -4.81120782229209E-04  1.35939820012316E-01
 cg2d: Sum(rhs),rhsMax =  -4.79955831594040E-04  1.35937199638412E-01
 cg2d: Sum(rhs),rhsMax =  -4.78789667651188E-04  1.35934583530161E-01
 cg2d: Sum(rhs),rhsMax =  -4.77622297014133E-04  1.35931971696994E-01
 cg2d: Sum(rhs),rhsMax =  -4.76453726091097E-04  1.35929364148331E-01
 cg2d: Sum(rhs),rhsMax =  -4.75283961660574E-04  1.35926760893586E-01
 cg2d: Sum(rhs),rhsMax =  -4.74113010135278E-04  1.35924161942161E-01
 cg2d: Sum(rhs),rhsMax =  -4.72940878057596E-04  1.35921567303451E-01
 cg2d: Sum(rhs),rhsMax =  -4.71767571957168E-04  1.35918976986839E-01
 cg2d: Sum(rhs),rhsMax =  -4.70593098316751E-04  1.35916391001703E-01
 cg2d: Sum(rhs),rhsMax =  -4.69417463562671E-04  1.35913809357409E-01
 cg2d: Sum(rhs),rhsMax =  -4.68329224636109E-04  1.35911232188964E-01
 cg2d: Sum(rhs),rhsMax =  -4.67239905239638E-04  1.35908659248840E-01
 cg2d: Sum(rhs),rhsMax =  -4.66149737402793E-04  1.35906090681931E-01
 cg2d: Sum(rhs),rhsMax =  -4.65058665091165E-04  1.35903526491438E-01
 cg2d: Sum(rhs),rhsMax =  -4.63966686550167E-04  1.35900966686946E-01
 cg2d: Sum(rhs),rhsMax =  -4.62873808357701E-04  1.35898411279458E-01
 cg2d: Sum(rhs),rhsMax =  -4.61780036582875E-04  1.35895860278452E-01
 cg2d: Sum(rhs),rhsMax =  -4.60685377392084E-04  1.35893313692978E-01
 cg2d: Sum(rhs),rhsMax =  -4.59589836374787E-04  1.35890771532151E-01
 cg2d: Sum(rhs),rhsMax =  -4.58493419578951E-04  1.35888233805227E-01
 cg2d: Sum(rhs),rhsMax =  -4.57396132972427E-04  1.35885700521526E-01
 cg2d: Sum(rhs),rhsMax =  -4.56297982616012E-04  1.35883171690356E-01
 cg2d: Sum(rhs),rhsMax =  -4.55198974346508E-04  1.35880647320982E-01
 cg2d: Sum(rhs),rhsMax =  -4.54099114150553E-04  1.35878127422635E-01
 cg2d: Sum(rhs),rhsMax =  -4.52998407969188E-04  1.35875612004525E-01
 cg2d: Sum(rhs),rhsMax =  -4.51896861524877E-04  1.35873101075853E-01
 cg2d: Sum(rhs),rhsMax =  -4.50794480628546E-04  1.35870594645815E-01
 cg2d: Sum(rhs),rhsMax =  -4.49691271169390E-04  1.35868092723606E-01
 cg2d: Sum(rhs),rhsMax =  -4.48587239044398E-04  1.35865595318411E-01
(PID.TID 0000.0001)      cg2d_init_res =   5.29743289366741E-04
(PID.TID 0000.0001)      cg2d_iters(min,last) =      -1      72
(PID.TID 0000.0001)      cg2d_last_res =   9.49156206987585E-08
(PID.TID 0000.0001) // =======================================================
(PID.TID 0000.0001) // Begin MONITOR dynamic field statistics
(PID.TID 0000.0001) // =======================================================
(PID.TID 0000.0001) %MON time_tsnumber                =                 19152
(PID.TID 0000.0001) %MON time_secondsf                =   2.2982400000000E+07
(PID.TID 0000.0001) %MON dynstat_eta_max              =   4.7245277117247E-02
(PID.TID 0000.0001) %MON dynstat_eta_min              =  -1.9566846278009E-02
(PID.TID 0000.0001) %MON dynstat_eta_mean             =   3.0398172895960E-07
(PID.TID 0000.0001) %MON dynstat_eta_sd               =   1.5298128918856E-02
(PID.TID 0000.0001) %MON dynstat_eta_del2             =   1.7675532828370E-05
(PID.TID 0000.0001) %MON dynstat_uvel_max             =   3.0455409383070E-02
(PID.TID 0000.0001) %MON dynstat_uvel_min             =  -1.5166382227580E-02
(PID.TID 0000.0001) %MON dynstat_uvel_mean            =   1.1231244458746E-07
(PID.TID 0000.0001) %MON dynstat_uvel_sd              =   6.0697205974090E-03
(PID.TID 0000.0001) %MON dynstat_uvel_del2            =   7.5042297010233E-06
(PID.TID 0000.0001) %MON dynstat_vvel_max             =   8.1930052234145E-02
(PID.TID 0000.0001) %MON dynstat_vvel_min             =  -3.1846913047390E-02
(PID.TID 0000.0001) %MON dynstat_vvel_mean            =  -8.0616906660584E-09
(PID.TID 0000.0001) %MON dynstat_vvel_sd              =   1.4398416679617E-02
(PID.TID 0000.0001) %MON dynstat_vvel_del2            =   7.3642296520891E-05
(PID.TID 0000.0001) %MON dynstat_wvel_max             =   9.2009329006760E-09
(PID.TID 0000.0001) %MON dynstat_wvel_min             =  -4.8418658412993E-09
(PID.TID 0000.0001) %MON dynstat_wvel_mean            =   9.9125120161463E-22
(PID.TID 0000.0001) %MON dynstat_wvel_sd              =   3.3767098375821E-09
(PID.TID 0000.0001) %MON dynstat_wvel_del2            =   1.0811048562359E-12
(PID.TID 0000.0001) %MON dynstat_theta_max            =   2.0000000000000E+01
(PID.TID 0000.0001) %MON dynstat_theta_min            =   2.0000000000000E+01
(PID.TID 0000.0001) %MON dynstat_theta_mean           =   2.0000000000000E+01
(PID.TID 0000.0001) %MON dynstat_theta_sd             =   0.0000000000000E+00
(PID.TID 0000.0001) %MON dynstat_theta_del2           =   0.0000000000000E+00
(PID.TID 0000.0001) %MON dynstat_salt_max             =   3.0000000000000E+01
(PID.TID 0000.0001) %MON dynstat_salt_min             =   3.0000000000000E+01
(PID.TID 0000.0001) %MON dynstat_salt_mean            =   3.0000000000000E+01
(PID.TID 0000.0001) %MON dynstat_salt_sd              =   0.0000000000000E+00
(PID.TID 0000.0001) %MON dynstat_salt_del2            =   0.0000000000000E+00
(PID.TID 0000.0001) %MON trAdv_CFL_u_max              =   1.8273632288704E-03
(PID.TID 0000.0001) %MON trAdv_CFL_v_max              =   4.9158997644290E-03
(PID.TID 0000.0001) %MON trAdv_CFL_w_max              =   2.2081729973084E-09
(PID.TID 0000.0001) %MON advcfl_uvel_max              =   1.8273245629842E-03
(PID.TID 0000.0001) %MON advcfl_vvel_max              =   4.9158031340487E-03
(PID.TID 0000.0001) %MON advcfl_wvel_max              =   4.4164477923245E-09
(PID.TID 0000.0001) %MON advcfl_W_hf_max              =   0.0000000000000E+00
(PID.TID 0000.0001) %MON pe_b_mean                    =   2.2958612628864E-07
(PID.TID 0000.0001) %MON ke_max                       =   3.3538044742029E-03
(PID.TID 0000.0001) %MON ke_mean                      =   1.2004332291973E-04
(PID.TID 0000.0001) %MON ke_vol                       =   7.2000000000000E+15
(PID.TID 0000.0001) %MON vort_r_min                   =  -1.4562383910153E-06
(PID.TID 0000.0001) %MON vort_r_max                   =   2.2454600041569E-06
(PID.TID 0000.0001) %MON vort_a_mean                  =   1.0600000000000E-04
(PID.TID 0000.0001) %MON vort_a_sd                    =   3.5361490495492E-06
(PID.TID 0000.0001) %MON vort_p_mean                  =   1.1130000000000E-04
(PID.TID 0000.0001) %MON vort_p_sd                    =   4.1150972146630E-05
(PID.TID 0000.0001) %MON surfExpan_theta_mean         =   1.9827379244614E-20
(PID.TID 0000.0001) %MON surfExpan_salt_mean          =   2.9741739935061E-20
(PID.TID 0000.0001) // =======================================================
(PID.TID 0000.0001) // End MONITOR dynamic field statistics
(PID.TID 0000.0001) // =======================================================
 cg2d: Sum(rhs),rhsMax =  -4.47482389969281E-04  1.35863102439412E-01
 cg2d: Sum(rhs),rhsMax =  -4.46376729789200E-04  1.35860614095781E-01
 cg2d: Sum(rhs),rhsMax =  -4.45270264278464E-04  1.35858130296680E-01
 cg2d: Sum(rhs),rhsMax =  -4.44162999184469E-04  1.35855651051259E-01
 cg2d: Sum(rhs),rhsMax =  -4.43054940257570E-04  1.35853176368656E-01
 cg2d: Sum(rhs),rhsMax =  -4.41946093187363E-04  1.35850706258000E-01
 cg2d: Sum(rhs),rhsMax =  -4.40836463775436E-04  1.35848240728407E-01
 cg2d: Sum(rhs),rhsMax =  -4.39726057680873E-04  1.35845779788985E-01
 cg2d: Sum(rhs),rhsMax =  -4.38614880541499E-04  1.35843323448831E-01
 cg2d: Sum(rhs),rhsMax =  -4.37502938134163E-04  1.35840871717034E-01
 cg2d: Sum(rhs),rhsMax =  -4.36390236118534E-04  1.35838424602672E-01
 cg2d: Sum(rhs),rhsMax =  -4.35276780085515E-04  1.35835982114815E-01
 cg2d: Sum(rhs),rhsMax =  -4.34162575659880E-04  1.35833544262522E-01
 cg2d: Sum(rhs),rhsMax =  -4.33047628511812E-04  1.35831111054842E-01
 cg2d: Sum(rhs),rhsMax =  -4.31931944217384E-04  1.35828682500814E-01
 cg2d: Sum(rhs),rhsMax =  -4.30815528426600E-04  1.35826258609467E-01
 cg2d: Sum(rhs),rhsMax =  -4.29698386617480E-04  1.35823839389821E-01
 cg2d: Sum(rhs),rhsMax =  -4.28580524532220E-04  1.35821424850881E-01
 cg2d: Sum(rhs),rhsMax =  -4.27461947663129E-04  1.35819015001647E-01
 cg2d: Sum(rhs),rhsMax =  -4.26342661498802E-04  1.35816609851106E-01
 cg2d: Sum(rhs),rhsMax =  -4.25222671549748E-04  1.35814209408237E-01
 cg2d: Sum(rhs),rhsMax =  -4.24101983469946E-04  1.35811813682007E-01
 cg2d: Sum(rhs),rhsMax =  -4.22980602638214E-04  1.35809422681373E-01
 cg2d: Sum(rhs),rhsMax =  -4.21858534615036E-04  1.35807036415282E-01
 cg2d: Sum(rhs),rhsMax =  -4.20735784822769E-04  1.35804654892670E-01
 cg2d: Sum(rhs),rhsMax =  -4.19612358821365E-04  1.35802278122466E-01
 cg2d: Sum(rhs),rhsMax =  -4.18488262038295E-04  1.35799906113583E-01
 cg2d: Sum(rhs),rhsMax =  -4.17363499883949E-04  1.35797538874929E-01
 cg2d: Sum(rhs),rhsMax =  -4.16238077886033E-04  1.35795176415397E-01
 cg2d: Sum(rhs),rhsMax =  -4.15112001395687E-04  1.35792818743874E-01
 cg2d: Sum(rhs),rhsMax =  -4.13985275867642E-04  1.35790465869233E-01
 cg2d: Sum(rhs),rhsMax =  -4.12857906754585E-04  1.35788117800338E-01
 cg2d: Sum(rhs),rhsMax =  -4.11729899356312E-04  1.35785774546042E-01
 cg2d: Sum(rhs),rhsMax =  -4.10701712631602E-04  1.35783436210388E-01
 cg2d: Sum(rhs),rhsMax =  -4.09673263605474E-04  1.35781102606647E-01
 cg2d: Sum(rhs),rhsMax =  -4.08644381040095E-04  1.35778773846274E-01
 cg2d: Sum(rhs),rhsMax =  -4.07615137612744E-04  1.35776449937951E-01
 cg2d: Sum(rhs),rhsMax =  -4.06585527581116E-04  1.35774130887278E-01
 cg2d: Sum(rhs),rhsMax =  -4.05555560022833E-04  1.35771816704043E-01
 cg2d: Sum(rhs),rhsMax =  -4.04525239970444E-04  1.35769507396835E-01
 cg2d: Sum(rhs),rhsMax =  -4.03494573832113E-04  1.35767202974632E-01
 cg2d: Sum(rhs),rhsMax =  -4.02463567384959E-04  1.35764903446079E-01
 cg2d: Sum(rhs),rhsMax =  -4.01432226206885E-04  1.35762608820053E-01
 cg2d: Sum(rhs),rhsMax =  -4.00400555775645E-04  1.35760319105330E-01
 cg2d: Sum(rhs),rhsMax =  -3.99368561266143E-04  1.35758034310678E-01
 cg2d: Sum(rhs),rhsMax =  -3.98336248097852E-04  1.35755754444792E-01
 cg2d: Sum(rhs),rhsMax =  -3.97303621799899E-04  1.35753479516348E-01
 cg2d: Sum(rhs),rhsMax =  -3.96270687804829E-04  1.35751209534015E-01
 cg2d: Sum(rhs),rhsMax =  -3.95237451535259E-04  1.35748944506461E-01
 cg2d: Sum(rhs),rhsMax =  -3.94203918514348E-04  1.35746684442352E-01
 cg2d: Sum(rhs),rhsMax =  -3.93170094046266E-04  1.35744429350348E-01
 cg2d: Sum(rhs),rhsMax =  -3.92135983688128E-04  1.35742179239100E-01
 cg2d: Sum(rhs),rhsMax =  -3.91101592658741E-04  1.35739934117249E-01
 cg2d: Sum(rhs),rhsMax =  -3.90066926520627E-04  1.35737693993428E-01
 cg2d: Sum(rhs),rhsMax =  -3.89031990405239E-04  1.35735458876257E-01
 cg2d: Sum(rhs),rhsMax =  -3.87996789816319E-04  1.35733228774345E-01
 cg2d: Sum(rhs),rhsMax =  -3.86961329927027E-04  1.35731003696284E-01
 cg2d: Sum(rhs),rhsMax =  -3.85925616072950E-04  1.35728783650659E-01
 cg2d: Sum(rhs),rhsMax =  -3.84889653737011E-04  1.35726568646038E-01
 cg2d: Sum(rhs),rhsMax =  -3.83853448127794E-04  1.35724358690980E-01
 cg2d: Sum(rhs),rhsMax =  -3.82817004340951E-04  1.35722153794031E-01
 cg2d: Sum(rhs),rhsMax =  -3.81780327835462E-04  1.35719953963731E-01
 cg2d: Sum(rhs),rhsMax =  -3.80743423856171E-04  1.35717759208603E-01
 cg2d: Sum(rhs),rhsMax =  -3.79706297583154E-04  1.35715569537166E-01
 cg2d: Sum(rhs),rhsMax =  -3.78668954086047E-04  1.35713384957924E-01
 cg2d: Sum(rhs),rhsMax =  -3.77631398795450E-04  1.35711205479372E-01
 cg2d: Sum(rhs),rhsMax =  -3.76593636799242E-04  1.35709031109990E-01
 cg2d: Sum(rhs),rhsMax =  -3.75555673214411E-04  1.35706861858250E-01
 cg2d: Sum(rhs),rhsMax =  -3.74517513340986E-04  1.35704697732610E-01
 cg2d: Sum(rhs),rhsMax =  -3.73479162337097E-04  1.35702538741518E-01
 cg2d: Sum(rhs),rhsMax =  -3.72440625059681E-04  1.35700384893410E-01
 cg2d: Sum(rhs),rhsMax =  -3.71401906915332E-04  1.35698236196709E-01
(PID.TID 0000.0001)      cg2d_init_res =   5.27848732628072E-04
(PID.TID 0000.0001)      cg2d_iters(min,last) =      -1      73
(PID.TID 0000.0001)      cg2d_last_res =   9.10673395542659E-08
(PID.TID 0000.0001) // =======================================================
(PID.TID 0000.0001) // Begin MONITOR dynamic field statistics
(PID.TID 0000.0001) // =======================================================
(PID.TID 0000.0001) %MON time_tsnumber                =                 19224
(PID.TID 0000.0001) %MON time_secondsf                =   2.3068800000000E+07
(PID.TID 0000.0001) %MON dynstat_eta_max              =   4.6966927562486E-02
(PID.TID 0000.0001) %MON dynstat_eta_min              =  -1.9730381888119E-02
(PID.TID 0000.0001) %MON dynstat_eta_mean             =   2.5128406855662E-07
(PID.TID 0000.0001) %MON dynstat_eta_sd               =   1.5229378786352E-02
(PID.TID 0000.0001) %MON dynstat_eta_del2             =   1.7659186146511E-05
(PID.TID 0000.0001) %MON dynstat_uvel_max             =   3.0411093586792E-02
(PID.TID 0000.0001) %MON dynstat_uvel_min             =  -1.5117332735054E-02
(PID.TID 0000.0001) %MON dynstat_uvel_mean            =   1.0124112149919E-07
(PID.TID 0000.0001) %MON dynstat_uvel_sd              =   6.0856110545227E-03
(PID.TID 0000.0001) %MON dynstat_uvel_del2            =   7.5068530869755E-06
(PID.TID 0000.0001) %MON dynstat_vvel_max             =   8.1820015305700E-02
(PID.TID 0000.0001) %MON dynstat_vvel_min             =  -3.1818114800637E-02
(PID.TID 0000.0001) %MON dynstat_vvel_mean            =  -9.4128928720827E-09
(PID.TID 0000.0001) %MON dynstat_vvel_sd              =   1.4371612138442E-02
(PID.TID 0000.0001) %MON dynstat_vvel_del2            =   7.3536486850069E-05
(PID.TID 0000.0001) %MON dynstat_wvel_max             =   9.1842842016558E-09
(PID.TID 0000.0001) %MON dynstat_wvel_min             =  -4.5080690234317E-09
(PID.TID 0000.0001) %MON dynstat_wvel_mean            =  -1.0833223819241E-21
(PID.TID 0000.0001) %MON dynstat_wvel_sd              =   3.3641417197919E-09
(PID.TID 0000.0001) %MON dynstat_wvel_del2            =   1.0744312334358E-12
(PID.TID 0000.0001) %MON dynstat_theta_max            =   2.0000000000000E+01
(PID.TID 0000.0001) %MON dynstat_theta_min            =   2.0000000000000E+01
(PID.TID 0000.0001) %MON dynstat_theta_mean           =   2.0000000000000E+01
(PID.TID 0000.0001) %MON dynstat_theta_sd             =   0.0000000000000E+00
(PID.TID 0000.0001) %MON dynstat_theta_del2           =   0.0000000000000E+00
(PID.TID 0000.0001) %MON dynstat_salt_max             =   3.0000000000000E+01
(PID.TID 0000.0001) %MON dynstat_salt_min             =   3.0000000000000E+01
(PID.TID 0000.0001) %MON dynstat_salt_mean            =   3.0000000000000E+01
(PID.TID 0000.0001) %MON dynstat_salt_sd              =   0.0000000000000E+00
(PID.TID 0000.0001) %MON dynstat_salt_del2            =   0.0000000000000E+00
(PID.TID 0000.0001) %MON trAdv_CFL_u_max              =   1.8247007564223E-03
(PID.TID 0000.0001) %MON trAdv_CFL_v_max              =   4.9092875241566E-03
(PID.TID 0000.0001) %MON trAdv_CFL_w_max              =   2.2041676049761E-09
(PID.TID 0000.0001) %MON advcfl_uvel_max              =   1.8246656152075E-03
(PID.TID 0000.0001) %MON advcfl_vvel_max              =   4.9092009183420E-03
(PID.TID 0000.0001) %MON advcfl_wvel_max              =   4.4084564167948E-09
(PID.TID 0000.0001) %MON advcfl_W_hf_max              =   0.0000000000000E+00
(PID.TID 0000.0001) %MON pe_b_mean                    =   2.2752723269399E-07
(PID.TID 0000.0001) %MON ke_max                       =   3.3447984799413E-03
(PID.TID 0000.0001) %MON ke_mean                      =   1.1975913287608E-04
(PID.TID 0000.0001) %MON ke_vol                       =   7.2000000000000E+15
(PID.TID 0000.0001) %MON vort_r_min                   =  -1.4553843034425E-06
(PID.TID 0000.0001) %MON vort_r_max                   =   2.2428934980218E-06
(PID.TID 0000.0001) %MON vort_a_mean                  =   1.0600000000000E-04
(PID.TID 0000.0001) %MON vort_a_sd                    =   3.5361022830478E-06
(PID.TID 0000.0001) %MON vort_p_mean                  =   1.1130000000000E-04
(PID.TID 0000.0001) %MON vort_p_sd                    =   4.1151049895888E-05
(PID.TID 0000.0001) %MON surfExpan_theta_mean         =  -2.1665084541193E-20
(PID.TID 0000.0001) %MON surfExpan_salt_mean          =  -3.2498729633327E-20
(PID.TID 0000.0001) // =======================================================
(PID.TID 0000.0001) // End MONITOR dynamic field statistics
(PID.TID 0000.0001) // =======================================================
 cg2d: Sum(rhs),rhsMax =  -3.70363012872868E-04  1.35696092659828E-01
 cg2d: Sum(rhs),rhsMax =  -3.69323948027696E-04  1.35693954291172E-01
 cg2d: Sum(rhs),rhsMax =  -3.68284717538745E-04  1.35691821099127E-01
 cg2d: Sum(rhs),rhsMax =  -3.67245326290207E-04  1.35689693092074E-01
 cg2d: Sum(rhs),rhsMax =  -3.66205779530225E-04  1.35687570278380E-01
 cg2d: Sum(rhs),rhsMax =  -3.65166082094550E-04  1.35685452666400E-01
 cg2d: Sum(rhs),rhsMax =  -3.64126239119600E-04  1.35683340264479E-01
 cg2d: Sum(rhs),rhsMax =  -3.63086255542515E-04  1.35681233080948E-01
 cg2d: Sum(rhs),rhsMax =  -3.62046136404430E-04  1.35679131124129E-01
 cg2d: Sum(rhs),rhsMax =  -3.61005886663773E-04  1.35677034402330E-01
 cg2d: Sum(rhs),rhsMax =  -3.59965511273928E-04  1.35674942923847E-01
 cg2d: Sum(rhs),rhsMax =  -3.58925015179083E-04  1.35672856696968E-01
 cg2d: Sum(rhs),rhsMax =  -3.57884403239349E-04  1.35670775729966E-01
 cg2d: Sum(rhs),rhsMax =  -3.56843680453841E-04  1.35668700031102E-01
 cg2d: Sum(rhs),rhsMax =  -3.55802851561044E-04  1.35666629608627E-01
 cg2d: Sum(rhs),rhsMax =  -3.54761921617237E-04  1.35664564470779E-01
 cg2d: Sum(rhs),rhsMax =  -3.53720895444925E-04  1.35662504625786E-01
 cg2d: Sum(rhs),rhsMax =  -3.52679777783087E-04  1.35660450081861E-01
 cg2d: Sum(rhs),rhsMax =  -3.51638573666102E-04  1.35658400847207E-01
 cg2d: Sum(rhs),rhsMax =  -3.50597287727364E-04  1.35656356930017E-01
 cg2d: Sum(rhs),rhsMax =  -3.49555924846740E-04  1.35654318338467E-01
 cg2d: Sum(rhs),rhsMax =  -3.48514489886279E-04  1.35652285080726E-01
 cg2d: Sum(rhs),rhsMax =  -3.47472987453460E-04  1.35650257164949E-01
 cg2d: Sum(rhs),rhsMax =  -3.46431422416290E-04  1.35648234599278E-01
 cg2d: Sum(rhs),rhsMax =  -3.45389799561710E-04  1.35646217391845E-01
 cg2d: Sum(rhs),rhsMax =  -3.44348123567526E-04  1.35644205550770E-01
 cg2d: Sum(rhs),rhsMax =  -3.43306399091964E-04  1.35642199084157E-01
 cg2d: Sum(rhs),rhsMax =  -3.42264630973832E-04  1.35640198000103E-01
 cg2d: Sum(rhs),rhsMax =  -3.41222823877744E-04  1.35638202306691E-01
 cg2d: Sum(rhs),rhsMax =  -3.40180982367900E-04  1.35636212011991E-01
 cg2d: Sum(rhs),rhsMax =  -3.39139111161094E-04  1.35634227124061E-01
 cg2d: Sum(rhs),rhsMax =  -3.38097214953710E-04  1.35632247650948E-01
 cg2d: Sum(rhs),rhsMax =  -3.37055298343761E-04  1.35630273600687E-01
 cg2d: Sum(rhs),rhsMax =  -3.36013365922775E-04  1.35628304981298E-01
 cg2d: Sum(rhs),rhsMax =  -3.34971422366371E-04  1.35626341800792E-01
 cg2d: Sum(rhs),rhsMax =  -3.33929472211858E-04  1.35624384067165E-01
 cg2d: Sum(rhs),rhsMax =  -3.32887519992091E-04  1.35622431788404E-01
 cg2d: Sum(rhs),rhsMax =  -3.31845570358079E-04  1.35620484972480E-01
 cg2d: Sum(rhs),rhsMax =  -3.30803627802194E-04  1.35618543627354E-01
 cg2d: Sum(rhs),rhsMax =  -3.29761696905131E-04  1.35616607760975E-01
 cg2d: Sum(rhs),rhsMax =  -3.28719782168276E-04  1.35614677381278E-01
 cg2d: Sum(rhs),rhsMax =  -3.27677888155524E-04  1.35612752496187E-01
 cg2d: Sum(rhs),rhsMax =  -3.26636019255411E-04  1.35610833113611E-01
 cg2d: Sum(rhs),rhsMax =  -3.25594180099266E-04  1.35608919241450E-01
 cg2d: Sum(rhs),rhsMax =  -3.24552375095976E-04  1.35607010887590E-01
 cg2d: Sum(rhs),rhsMax =  -3.23510608618846E-04  1.35605108059903E-01
 cg2d: Sum(rhs),rhsMax =  -3.22468885224683E-04  1.35603210766253E-01
 cg2d: Sum(rhs),rhsMax =  -3.21427209222485E-04  1.35601319014486E-01
 cg2d: Sum(rhs),rhsMax =  -3.20385585114023E-04  1.35599432812438E-01
 cg2d: Sum(rhs),rhsMax =  -3.19344017382268E-04  1.35597552167933E-01
 cg2d: Sum(rhs),rhsMax =  -3.18302510364856E-04  1.35595677088782E-01
 cg2d: Sum(rhs),rhsMax =  -3.17261068397964E-04  1.35593807582782E-01
 cg2d: Sum(rhs),rhsMax =  -3.16219695931807E-04  1.35591943657720E-01
 cg2d: Sum(rhs),rhsMax =  -3.15178397333330E-04  1.35590085321367E-01
 cg2d: Sum(rhs),rhsMax =  -3.14137176915468E-04  1.35588232581485E-01
 cg2d: Sum(rhs),rhsMax =  -3.13096039027252E-04  1.35586385445820E-01
 cg2d: Sum(rhs),rhsMax =  -3.12054987955624E-04  1.35584543922108E-01
 cg2d: Sum(rhs),rhsMax =  -3.11014028140186E-04  1.35582708018069E-01
 cg2d: Sum(rhs),rhsMax =  -3.09973163755557E-04  1.35580877741414E-01
 cg2d: Sum(rhs),rhsMax =  -3.08932399188492E-04  1.35579053099839E-01
 cg2d: Sum(rhs),rhsMax =  -3.07891738760701E-04  1.35577234101026E-01
 cg2d: Sum(rhs),rhsMax =  -3.06851186687448E-04  1.35575420752648E-01
 cg2d: Sum(rhs),rhsMax =  -3.05810747245497E-04  1.35573613062362E-01
 cg2d: Sum(rhs),rhsMax =  -3.05007887445819E-04  1.35571810735873E-01
 cg2d: Sum(rhs),rhsMax =  -3.04205509281074E-04  1.35570014376068E-01
 cg2d: Sum(rhs),rhsMax =  -3.03403613731508E-04  1.35568223694029E-01
 cg2d: Sum(rhs),rhsMax =  -3.02602190275271E-04  1.35566438707439E-01
 cg2d: Sum(rhs),rhsMax =  -3.01801233573773E-04  1.35564659418786E-01
 cg2d: Sum(rhs),rhsMax =  -3.01000745444799E-04  1.35562885832214E-01
 cg2d: Sum(rhs),rhsMax =  -3.00200732854287E-04  1.35561117955411E-01
 cg2d: Sum(rhs),rhsMax =  -2.99401203155071E-04  1.35559355796498E-01
 cg2d: Sum(rhs),rhsMax =  -2.98602162337289E-04  1.35557599363689E-01
(PID.TID 0000.0001)      cg2d_init_res =   5.26324914891576E-04
(PID.TID 0000.0001)      cg2d_iters(min,last) =      -1      75
(PID.TID 0000.0001)      cg2d_last_res =   9.25740285145512E-08
(PID.TID 0000.0001) // =======================================================
(PID.TID 0000.0001) // Begin MONITOR dynamic field statistics
(PID.TID 0000.0001) // =======================================================
(PID.TID 0000.0001) %MON time_tsnumber                =                 19296
(PID.TID 0000.0001) %MON time_secondsf                =   2.3155200000000E+07
(PID.TID 0000.0001) %MON dynstat_eta_max              =   4.6686381651935E-02
(PID.TID 0000.0001) %MON dynstat_eta_min              =  -1.9911819308442E-02
(PID.TID 0000.0001) %MON dynstat_eta_mean             =   2.0184510808743E-07
(PID.TID 0000.0001) %MON dynstat_eta_sd               =   1.5182047634744E-02
(PID.TID 0000.0001) %MON dynstat_eta_del2             =   1.7642438679318E-05
(PID.TID 0000.0001) %MON dynstat_uvel_max             =   3.0371370819275E-02
(PID.TID 0000.0001) %MON dynstat_uvel_min             =  -1.5073211263877E-02
(PID.TID 0000.0001) %MON dynstat_uvel_mean            =   8.8851104842792E-08
(PID.TID 0000.0001) %MON dynstat_uvel_sd              =   6.1081049484687E-03
(PID.TID 0000.0001) %MON dynstat_uvel_del2            =   7.5138158481560E-06
(PID.TID 0000.0001) %MON dynstat_vvel_max             =   8.1723070819794E-02
(PID.TID 0000.0001) %MON dynstat_vvel_min             =  -3.1776101254070E-02
(PID.TID 0000.0001) %MON dynstat_vvel_mean            =  -1.0695095046124E-08
(PID.TID 0000.0001) %MON dynstat_vvel_sd              =   1.4346933591524E-02
(PID.TID 0000.0001) %MON dynstat_vvel_del2            =   7.3433257987601E-05
(PID.TID 0000.0001) %MON dynstat_wvel_max             =   9.1611117233333E-09
(PID.TID 0000.0001) %MON dynstat_wvel_min             =  -4.2193349913578E-09
(PID.TID 0000.0001) %MON dynstat_wvel_mean            =  -2.4073026199605E-21
(PID.TID 0000.0001) %MON dynstat_wvel_sd              =   3.3518616636269E-09
(PID.TID 0000.0001) %MON dynstat_wvel_del2            =   1.0656785123047E-12
(PID.TID 0000.0001) %MON dynstat_theta_max            =   2.0000000000000E+01
(PID.TID 0000.0001) %MON dynstat_theta_min            =   2.0000000000000E+01
(PID.TID 0000.0001) %MON dynstat_theta_mean           =   2.0000000000000E+01
(PID.TID 0000.0001) %MON dynstat_theta_sd             =   0.0000000000000E+00
(PID.TID 0000.0001) %MON dynstat_theta_del2           =   0.0000000000000E+00
(PID.TID 0000.0001) %MON dynstat_salt_max             =   3.0000000000000E+01
(PID.TID 0000.0001) %MON dynstat_salt_min             =   3.0000000000000E+01
(PID.TID 0000.0001) %MON dynstat_salt_mean            =   3.0000000000000E+01
(PID.TID 0000.0001) %MON dynstat_salt_sd              =   0.0000000000000E+00
(PID.TID 0000.0001) %MON dynstat_salt_del2            =   0.0000000000000E+00
(PID.TID 0000.0001) %MON trAdv_CFL_u_max              =   1.8223132743447E-03
(PID.TID 0000.0001) %MON trAdv_CFL_v_max              =   4.9034591037271E-03
(PID.TID 0000.0001) %MON trAdv_CFL_w_max              =   2.1987285111740E-09
(PID.TID 0000.0001) %MON advcfl_uvel_max              =   1.8222822491565E-03
(PID.TID 0000.0001) %MON advcfl_vvel_max              =   4.9033842491876E-03
(PID.TID 0000.0001) %MON advcfl_wvel_max              =   4.3973336272000E-09
(PID.TID 0000.0001) %MON advcfl_W_hf_max              =   0.0000000000000E+00
(PID.TID 0000.0001) %MON pe_b_mean                    =   2.2611517358630E-07
(PID.TID 0000.0001) %MON ke_max                       =   3.3368571345134E-03
(PID.TID 0000.0001) %MON ke_mean                      =   1.1954552936165E-04
(PID.TID 0000.0001) %MON ke_vol                       =   7.2000000000000E+15
(PID.TID 0000.0001) %MON vort_r_min                   =  -1.4545052943472E-06
(PID.TID 0000.0001) %MON vort_r_max                   =   2.2408476055406E-06
(PID.TID 0000.0001) %MON vort_a_mean                  =   1.0600000000000E-04
(PID.TID 0000.0001) %MON vort_a_sd                    =   3.5360585420617E-06
(PID.TID 0000.0001) %MON vort_p_mean                  =   1.1130000000000E-04
(PID.TID 0000.0001) %MON vort_p_sd                    =   4.1151131830052E-05
(PID.TID 0000.0001) %MON surfExpan_theta_mean         =  -4.8149020573065E-20
(PID.TID 0000.0001) %MON surfExpan_salt_mean          =  -7.2223511122300E-20
(PID.TID 0000.0001) // =======================================================
(PID.TID 0000.0001) // End MONITOR dynamic field statistics
(PID.TID 0000.0001) // =======================================================
 cg2d: Sum(rhs),rhsMax =  -2.97803613868477E-04  1.35555848664955E-01
 cg2d: Sum(rhs),rhsMax =  -2.97005560425480E-04  1.35554103708040E-01
 cg2d: Sum(rhs),rhsMax =  -2.96208004392053E-04  1.35552364500421E-01
 cg2d: Sum(rhs),rhsMax =  -2.95410948632806E-04  1.35550631049453E-01
 cg2d: Sum(rhs),rhsMax =  -2.94614396589930E-04  1.35548903362475E-01
 cg2d: Sum(rhs),rhsMax =  -2.93818351753764E-04  1.35547181446875E-01
 cg2d: Sum(rhs),rhsMax =  -2.93022818027403E-04  1.35545465310077E-01
 cg2d: Sum(rhs),rhsMax =  -2.92227798825160E-04  1.35543754959519E-01
 cg2d: Sum(rhs),rhsMax =  -2.91433297706357E-04  1.35542050402633E-01
 cg2d: Sum(rhs),rhsMax =  -2.90639318004493E-04  1.35540351646834E-01
 cg2d: Sum(rhs),rhsMax =  -2.89845862958491E-04  1.35538658699528E-01
 cg2d: Sum(rhs),rhsMax =  -2.89052936036800E-04  1.35536971568107E-01
 cg2d: Sum(rhs),rhsMax =  -2.88260540627700E-04  1.35535290259954E-01
 cg2d: Sum(rhs),rhsMax =  -2.87468680072422E-04  1.35533614782433E-01
 cg2d: Sum(rhs),rhsMax =  -2.86677357841378E-04  1.35531945142895E-01
 cg2d: Sum(rhs),rhsMax =  -2.85886577305378E-04  1.35530281348668E-01
 cg2d: Sum(rhs),rhsMax =  -2.85096341843419E-04  1.35528623407063E-01
 cg2d: Sum(rhs),rhsMax =  -2.84306654808794E-04  1.35526971325374E-01
 cg2d: Sum(rhs),rhsMax =  -2.83517519584378E-04  1.35525325110887E-01
 cg2d: Sum(rhs),rhsMax =  -2.82728939544837E-04  1.35523684770871E-01
 cg2d: Sum(rhs),rhsMax =  -2.81940918003936E-04  1.35522050312590E-01
 cg2d: Sum(rhs),rhsMax =  -2.81153458310908E-04  1.35520421743295E-01
 cg2d: Sum(rhs),rhsMax =  -2.80366563915357E-04  1.35518799070222E-01
 cg2d: Sum(rhs),rhsMax =  -2.79580238105056E-04  1.35517182300598E-01
 cg2d: Sum(rhs),rhsMax =  -2.78794484239502E-04  1.35515571441632E-01
 cg2d: Sum(rhs),rhsMax =  -2.78009305697996E-04  1.35513966500519E-01
 cg2d: Sum(rhs),rhsMax =  -2.77224705751420E-04  1.35512367484441E-01
 cg2d: Sum(rhs),rhsMax =  -2.76440687745644E-04  1.35510774400563E-01
 cg2d: Sum(rhs),rhsMax =  -2.75657255013293E-04  1.35509187256039E-01
 cg2d: Sum(rhs),rhsMax =  -2.74874410994416E-04  1.35507606058007E-01
 cg2d: Sum(rhs),rhsMax =  -2.74092158877677E-04  1.35506030813593E-01
 cg2d: Sum(rhs),rhsMax =  -2.73310502005519E-04  1.35504461529911E-01
 cg2d: Sum(rhs),rhsMax =  -2.72529443889896E-04  1.35502898214058E-01
 cg2d: Sum(rhs),rhsMax =  -2.71748987631225E-04  1.35501340873123E-01
 cg2d: Sum(rhs),rhsMax =  -2.70969136571747E-04  1.35499789514175E-01
 cg2d: Sum(rhs),rhsMax =  -2.70189894121207E-04  1.35498244144272E-01
 cg2d: Sum(rhs),rhsMax =  -2.69411263545037E-04  1.35496704770460E-01
 cg2d: Sum(rhs),rhsMax =  -2.68633248157273E-04  1.35495171399767E-01
 cg2d: Sum(rhs),rhsMax =  -2.67855851431845E-04  1.35493644039210E-01
 cg2d: Sum(rhs),rhsMax =  -2.67079076425917E-04  1.35492122695791E-01
 cg2d: Sum(rhs),rhsMax =  -2.66302926578173E-04  1.35490607376499E-01
 cg2d: Sum(rhs),rhsMax =  -2.65527405235547E-04  1.35489098088307E-01
 cg2d: Sum(rhs),rhsMax =  -2.64752515489305E-04  1.35487594838176E-01
 cg2d: Sum(rhs),rhsMax =  -2.63978260926064E-04  1.35486097633054E-01
 cg2d: Sum(rhs),rhsMax =  -2.63204644720820E-04  1.35484606479872E-01
 cg2d: Sum(rhs),rhsMax =  -2.62431670102439E-04  1.35483121385549E-01
 cg2d: Sum(rhs),rhsMax =  -2.61659340597322E-04  1.35481642356992E-01
 cg2d: Sum(rhs),rhsMax =  -2.60887659220188E-04  1.35480169401088E-01
 cg2d: Sum(rhs),rhsMax =  -2.60116629425701E-04  1.35478702524717E-01
 cg2d: Sum(rhs),rhsMax =  -2.59346254514910E-04  1.35477241734740E-01
 cg2d: Sum(rhs),rhsMax =  -2.58576537797643E-04  1.35475787038005E-01
 cg2d: Sum(rhs),rhsMax =  -2.57807482529314E-04  1.35474338441347E-01
 cg2d: Sum(rhs),rhsMax =  -2.57039092032706E-04  1.35472895951586E-01
 cg2d: Sum(rhs),rhsMax =  -2.56271369538656E-04  1.35471459575529E-01
 cg2d: Sum(rhs),rhsMax =  -2.55504318414935E-04  1.35470029319966E-01
 cg2d: Sum(rhs),rhsMax =  -2.54737941892596E-04  1.35468605191677E-01
 cg2d: Sum(rhs),rhsMax =  -2.53972243393717E-04  1.35467187197425E-01
 cg2d: Sum(rhs),rhsMax =  -2.53207226043850E-04  1.35465775343958E-01
 cg2d: Sum(rhs),rhsMax =  -2.52442893267731E-04  1.35464369638012E-01
 cg2d: Sum(rhs),rhsMax =  -2.51679248281956E-04  1.35462970086308E-01
 cg2d: Sum(rhs),rhsMax =  -2.50916294459582E-04  1.35461576695553E-01
 cg2d: Sum(rhs),rhsMax =  -2.50154034982381E-04  1.35460189472439E-01
 cg2d: Sum(rhs),rhsMax =  -2.49392473252544E-04  1.35458808423643E-01
 cg2d: Sum(rhs),rhsMax =  -2.48631612511636E-04  1.35457433555830E-01
 cg2d: Sum(rhs),rhsMax =  -2.47871456013500E-04  1.35456064875648E-01
 cg2d: Sum(rhs),rhsMax =  -2.47112007168800E-04  1.35454702389733E-01
 cg2d: Sum(rhs),rhsMax =  -2.46353269230282E-04  1.35453346104705E-01
 cg2d: Sum(rhs),rhsMax =  -2.45595245434826E-04  1.35451996027171E-01
 cg2d: Sum(rhs),rhsMax =  -2.44837938989597E-04  1.35450652163721E-01
 cg2d: Sum(rhs),rhsMax =  -2.44081353439266E-04  1.35449314520935E-01
 cg2d: Sum(rhs),rhsMax =  -2.43325491930148E-04  1.35447983105372E-01
 cg2d: Sum(rhs),rhsMax =  -2.42570357702661E-04  1.35446657923584E-01
(PID.TID 0000.0001)      cg2d_init_res =   5.25228192551838E-04
(PID.TID 0000.0001)      cg2d_iters(min,last) =      -1      75
(PID.TID 0000.0001)      cg2d_last_res =   9.84659033221750E-08
(PID.TID 0000.0001) // =======================================================
(PID.TID 0000.0001) // Begin MONITOR dynamic field statistics
(PID.TID 0000.0001) // =======================================================
(PID.TID 0000.0001) %MON time_tsnumber                =                 19368
(PID.TID 0000.0001) %MON time_secondsf                =   2.3241600000000E+07
(PID.TID 0000.0001) %MON dynstat_eta_max              =   4.6407865899140E-02
(PID.TID 0000.0001) %MON dynstat_eta_min              =  -2.0109007359153E-02
(PID.TID 0000.0001) %MON dynstat_eta_mean             =   1.6376421948181E-07
(PID.TID 0000.0001) %MON dynstat_eta_sd               =   1.5156997824063E-02
(PID.TID 0000.0001) %MON dynstat_eta_del2             =   1.7625481684301E-05
(PID.TID 0000.0001) %MON dynstat_uvel_max             =   3.0336926749106E-02
(PID.TID 0000.0001) %MON dynstat_uvel_min             =  -1.5034607291029E-02
(PID.TID 0000.0001) %MON dynstat_uvel_mean            =   7.5305449261807E-08
(PID.TID 0000.0001) %MON dynstat_uvel_sd              =   6.1369614248952E-03
(PID.TID 0000.0001) %MON dynstat_uvel_del2            =   7.5251822425312E-06
(PID.TID 0000.0001) %MON dynstat_vvel_max             =   8.1641209493451E-02
(PID.TID 0000.0001) %MON dynstat_vvel_min             =  -3.1720873910204E-02
(PID.TID 0000.0001) %MON dynstat_vvel_mean            =  -1.1897291665759E-08
(PID.TID 0000.0001) %MON dynstat_vvel_sd              =   1.4324725125955E-02
(PID.TID 0000.0001) %MON dynstat_vvel_del2            =   7.3334047633970E-05
(PID.TID 0000.0001) %MON dynstat_wvel_max             =   9.1312535231918E-09
(PID.TID 0000.0001) %MON dynstat_wvel_min             =  -3.9361276145792E-09
(PID.TID 0000.0001) %MON dynstat_wvel_mean            =  -2.4573961986284E-21
(PID.TID 0000.0001) %MON dynstat_wvel_sd              =   3.3401783337774E-09
(PID.TID 0000.0001) %MON dynstat_wvel_del2            =   1.0584417072237E-12
(PID.TID 0000.0001) %MON dynstat_theta_max            =   2.0000000000000E+01
(PID.TID 0000.0001) %MON dynstat_theta_min            =   2.0000000000000E+01
(PID.TID 0000.0001) %MON dynstat_theta_mean           =   2.0000000000000E+01
(PID.TID 0000.0001) %MON dynstat_theta_sd             =   0.0000000000000E+00
(PID.TID 0000.0001) %MON dynstat_theta_del2           =   0.0000000000000E+00
(PID.TID 0000.0001) %MON dynstat_salt_max             =   3.0000000000000E+01
(PID.TID 0000.0001) %MON dynstat_salt_min             =   3.0000000000000E+01
(PID.TID 0000.0001) %MON dynstat_salt_mean            =   3.0000000000000E+01
(PID.TID 0000.0001) %MON dynstat_salt_sd              =   0.0000000000000E+00
(PID.TID 0000.0001) %MON dynstat_salt_del2            =   0.0000000000000E+00
(PID.TID 0000.0001) %MON trAdv_CFL_u_max              =   1.8202419634130E-03
(PID.TID 0000.0001) %MON trAdv_CFL_v_max              =   4.8985340838230E-03
(PID.TID 0000.0001) %MON trAdv_CFL_w_max              =   2.1917688121117E-09
(PID.TID 0000.0001) %MON advcfl_uvel_max              =   1.8202156049463E-03
(PID.TID 0000.0001) %MON advcfl_vvel_max              =   4.8984725696071E-03
(PID.TID 0000.0001) %MON advcfl_wvel_max              =   4.3830016911321E-09
(PID.TID 0000.0001) %MON advcfl_W_hf_max              =   0.0000000000000E+00
(PID.TID 0000.0001) %MON pe_b_mean                    =   2.2536962598723E-07
(PID.TID 0000.0001) %MON ke_max                       =   3.3301400635452E-03
(PID.TID 0000.0001) %MON ke_mean                      =   1.1940618902306E-04
(PID.TID 0000.0001) %MON ke_vol                       =   7.2000000000000E+15
(PID.TID 0000.0001) %MON vort_r_min                   =  -1.4536140639769E-06
(PID.TID 0000.0001) %MON vort_r_max                   =   2.2393702822834E-06
(PID.TID 0000.0001) %MON vort_a_mean                  =   1.0600000000000E-04
(PID.TID 0000.0001) %MON vort_a_sd                    =   3.5360184397728E-06
(PID.TID 0000.0001) %MON vort_p_mean                  =   1.1130000000000E-04
(PID.TID 0000.0001) %MON vort_p_sd                    =   4.1151217212389E-05
(PID.TID 0000.0001) %MON surfExpan_theta_mean         =  -4.9151164619824E-20
(PID.TID 0000.0001) %MON surfExpan_salt_mean          =  -7.3726706221559E-20
(PID.TID 0000.0001) // =======================================================
(PID.TID 0000.0001) // End MONITOR dynamic field statistics
(PID.TID 0000.0001) // =======================================================
 cg2d: Sum(rhs),rhsMax =  -2.41815954288298E-04  1.35445338982102E-01
 cg2d: Sum(rhs),rhsMax =  -2.41062284714666E-04  1.35444026287447E-01
 cg2d: Sum(rhs),rhsMax =  -2.40309352382873E-04  1.35442719846124E-01
 cg2d: Sum(rhs),rhsMax =  -2.39557160676215E-04  1.35441419664621E-01
 cg2d: Sum(rhs),rhsMax =  -2.38805712728714E-04  1.35440125749415E-01
 cg2d: Sum(rhs),rhsMax =  -2.38055011969738E-04  1.35438838106968E-01
 cg2d: Sum(rhs),rhsMax =  -2.37305061682247E-04  1.35437556743726E-01
 cg2d: Sum(rhs),rhsMax =  -2.36555865081007E-04  1.35436281666119E-01
 cg2d: Sum(rhs),rhsMax =  -2.35807425564018E-04  1.35435012880566E-01
 cg2d: Sum(rhs),rhsMax =  -2.35059746323054E-04  1.35433750393469E-01
 cg2d: Sum(rhs),rhsMax =  -2.34312830786775E-04  1.35432494211216E-01
 cg2d: Sum(rhs),rhsMax =  -2.33566682223502E-04  1.35431244340178E-01
 cg2d: Sum(rhs),rhsMax =  -2.32821303796983E-04  1.35430000786717E-01
 cg2d: Sum(rhs),rhsMax =  -2.32076698978413E-04  1.35428763557174E-01
 cg2d: Sum(rhs),rhsMax =  -2.31332870970368E-04  1.35427532657879E-01
 cg2d: Sum(rhs),rhsMax =  -2.30589823120914E-04  1.35426308095145E-01
 cg2d: Sum(rhs),rhsMax =  -2.29847558723834E-04  1.35425089875274E-01
 cg2d: Sum(rhs),rhsMax =  -2.29106081048284E-04  1.35423878004546E-01
 cg2d: Sum(rhs),rhsMax =  -2.28365393539268E-04  1.35422672489235E-01
 cg2d: Sum(rhs),rhsMax =  -2.27625499441930E-04  1.35421473335593E-01
 cg2d: Sum(rhs),rhsMax =  -2.26886402005309E-04  1.35420280549861E-01
 cg2d: Sum(rhs),rhsMax =  -2.26148104555128E-04  1.35419094138265E-01
 cg2d: Sum(rhs),rhsMax =  -2.25410610358378E-04  1.35417914107013E-01
 cg2d: Sum(rhs),rhsMax =  -2.24673922767720E-04  1.35416740462302E-01
 cg2d: Sum(rhs),rhsMax =  -2.24055738862189E-04  1.35415573673616E-01
 cg2d: Sum(rhs),rhsMax =  -2.23438110946070E-04  1.35414412819749E-01
 cg2d: Sum(rhs),rhsMax =  -2.22821424803532E-04  1.35413258361257E-01
 cg2d: Sum(rhs),rhsMax =  -2.22205569453753E-04  1.35412110322268E-01
 cg2d: Sum(rhs),rhsMax =  -2.21590528518585E-04  1.35410968702553E-01
 cg2d: Sum(rhs),rhsMax =  -2.20976303972672E-04  1.35409833505131E-01
 cg2d: Sum(rhs),rhsMax =  -2.20362901921240E-04  1.35408704735788E-01
 cg2d: Sum(rhs),rhsMax =  -2.19750327800384E-04  1.35407582401153E-01
 cg2d: Sum(rhs),rhsMax =  -2.19138585905908E-04  1.35406466507875E-01
 cg2d: Sum(rhs),rhsMax =  -2.18527679325790E-04  1.35405357062387E-01
 cg2d: Sum(rhs),rhsMax =  -2.17917610566521E-04  1.35404254070870E-01
 cg2d: Sum(rhs),rhsMax =  -2.17308381903091E-04  1.35403157539310E-01
 cg2d: Sum(rhs),rhsMax =  -2.16699996126926E-04  1.35402067473606E-01
 cg2d: Sum(rhs),rhsMax =  -2.16092456049401E-04  1.35400983879647E-01
 cg2d: Sum(rhs),rhsMax =  -2.15485764880681E-04  1.35399906763343E-01
 cg2d: Sum(rhs),rhsMax =  -2.14879925622750E-04  1.35398836130631E-01
 cg2d: Sum(rhs),rhsMax =  -2.14274941482664E-04  1.35397771987448E-01
 cg2d: Sum(rhs),rhsMax =  -2.13670815360405E-04  1.35396714339721E-01
 cg2d: Sum(rhs),rhsMax =  -2.13067550231980E-04  1.35395663193362E-01
 cg2d: Sum(rhs),rhsMax =  -2.12465149022152E-04  1.35394618554272E-01
 cg2d: Sum(rhs),rhsMax =  -2.11863614707188E-04  1.35393580428336E-01
 cg2d: Sum(rhs),rhsMax =  -2.11262950285653E-04  1.35392548821427E-01
 cg2d: Sum(rhs),rhsMax =  -2.10663158733995E-04  1.35391523739401E-01
 cg2d: Sum(rhs),rhsMax =  -2.10064243003982E-04  1.35390505188095E-01
 cg2d: Sum(rhs),rhsMax =  -2.09466206068841E-04  1.35389493173325E-01
 cg2d: Sum(rhs),rhsMax =  -2.08869050941402E-04  1.35388487700887E-01
 cg2d: Sum(rhs),rhsMax =  -2.08272780483593E-04  1.35387488776564E-01
 cg2d: Sum(rhs),rhsMax =  -2.07677397796945E-04  1.35386496406118E-01
 cg2d: Sum(rhs),rhsMax =  -2.07082905734683E-04  1.35385510595302E-01
 cg2d: Sum(rhs),rhsMax =  -2.06489307473762E-04  1.35384531349857E-01
 cg2d: Sum(rhs),rhsMax =  -2.05896605665022E-04  1.35383558675508E-01
 cg2d: Sum(rhs),rhsMax =  -2.05304803553246E-04  1.35382592577965E-01
 cg2d: Sum(rhs),rhsMax =  -2.04713903892649E-04  1.35381633062924E-01
 cg2d: Sum(rhs),rhsMax =  -2.04123909713722E-04  1.35380680136064E-01
 cg2d: Sum(rhs),rhsMax =  -2.03534824159879E-04  1.35379733803049E-01
 cg2d: Sum(rhs),rhsMax =  -2.02946649808771E-04  1.35378794069525E-01
 cg2d: Sum(rhs),rhsMax =  -2.02359389877753E-04  1.35377860941121E-01
 cg2d: Sum(rhs),rhsMax =  -2.01773047283321E-04  1.35376934423453E-01
 cg2d: Sum(rhs),rhsMax =  -2.01187624901880E-04  1.35376014522121E-01
 cg2d: Sum(rhs),rhsMax =  -2.00603125757980E-04  1.35375101242708E-01
 cg2d: Sum(rhs),rhsMax =  -2.00019552714630E-04  1.35374194590784E-01
 cg2d: Sum(rhs),rhsMax =  -1.99436908778714E-04  1.35373294571900E-01
 cg2d: Sum(rhs),rhsMax =  -1.98855196883241E-04  1.35372401191597E-01
 cg2d: Sum(rhs),rhsMax =  -1.98274419880642E-04  1.35371514455395E-01
 cg2d: Sum(rhs),rhsMax =  -1.97694580761321E-04  1.35370634368801E-01
 cg2d: Sum(rhs),rhsMax =  -1.97115682369803E-04  1.35369760937306E-01
 cg2d: Sum(rhs),rhsMax =  -1.96537727719321E-04  1.35368894166384E-01
 cg2d: Sum(rhs),rhsMax =  -1.95960719712013E-04  1.35368034061495E-01
(PID.TID 0000.0001)      cg2d_init_res =   5.24594608139030E-04
(PID.TID 0000.0001)      cg2d_iters(min,last) =      -1      76
(PID.TID 0000.0001)      cg2d_last_res =   9.72320869594974E-08
(PID.TID 0000.0001) // =======================================================
(PID.TID 0000.0001) // Begin MONITOR dynamic field statistics
(PID.TID 0000.0001) // =======================================================
(PID.TID 0000.0001) %MON time_tsnumber                =                 19440
(PID.TID 0000.0001) %MON time_secondsf                =   2.3328000000000E+07
(PID.TID 0000.0001) %MON dynstat_eta_max              =   4.6135569959401E-02
(PID.TID 0000.0001) %MON dynstat_eta_min              =  -2.0319601114173E-02
(PID.TID 0000.0001) %MON dynstat_eta_mean             =   1.3224335365009E-07
(PID.TID 0000.0001) %MON dynstat_eta_sd               =   1.5154711052568E-02
(PID.TID 0000.0001) %MON dynstat_eta_del2             =   1.7608514257344E-05
(PID.TID 0000.0001) %MON dynstat_uvel_max             =   3.0308393415434E-02
(PID.TID 0000.0001) %MON dynstat_uvel_min             =  -1.5002042448964E-02
(PID.TID 0000.0001) %MON dynstat_uvel_mean            =   6.0783031209305E-08
(PID.TID 0000.0001) %MON dynstat_uvel_sd              =   6.1718357749574E-03
(PID.TID 0000.0001) %MON dynstat_uvel_del2            =   7.5409338051091E-06
(PID.TID 0000.0001) %MON dynstat_vvel_max             =   8.1576242727652E-02
(PID.TID 0000.0001) %MON dynstat_vvel_min             =  -3.1652622538453E-02
(PID.TID 0000.0001) %MON dynstat_vvel_mean            =  -1.3009292099128E-08
(PID.TID 0000.0001) %MON dynstat_vvel_sd              =   1.4305304029918E-02
(PID.TID 0000.0001) %MON dynstat_vvel_del2            =   7.3240265012896E-05
(PID.TID 0000.0001) %MON dynstat_wvel_max             =   9.0700157474203E-09
(PID.TID 0000.0001) %MON dynstat_wvel_min             =  -3.6873263359303E-09
(PID.TID 0000.0001) %MON dynstat_wvel_mean            =   3.3955762369765E-21
(PID.TID 0000.0001) %MON dynstat_wvel_sd              =   3.3293509192844E-09
(PID.TID 0000.0001) %MON dynstat_wvel_del2            =   1.0565868995616E-12
(PID.TID 0000.0001) %MON dynstat_theta_max            =   2.0000000000000E+01
(PID.TID 0000.0001) %MON dynstat_theta_min            =   2.0000000000000E+01
(PID.TID 0000.0001) %MON dynstat_theta_mean           =   2.0000000000000E+01
(PID.TID 0000.0001) %MON dynstat_theta_sd             =   0.0000000000000E+00
(PID.TID 0000.0001) %MON dynstat_theta_del2           =   0.0000000000000E+00
(PID.TID 0000.0001) %MON dynstat_salt_max             =   3.0000000000000E+01
(PID.TID 0000.0001) %MON dynstat_salt_min             =   3.0000000000000E+01
(PID.TID 0000.0001) %MON dynstat_salt_mean            =   3.0000000000000E+01
(PID.TID 0000.0001) %MON dynstat_salt_sd              =   0.0000000000000E+00
(PID.TID 0000.0001) %MON dynstat_salt_del2            =   0.0000000000000E+00
(PID.TID 0000.0001) %MON trAdv_CFL_u_max              =   1.8185247945836E-03
(PID.TID 0000.0001) %MON trAdv_CFL_v_max              =   4.8946213090352E-03
(PID.TID 0000.0001) %MON trAdv_CFL_w_max              =   2.1770679070323E-09
(PID.TID 0000.0001) %MON advcfl_uvel_max              =   1.8185036049260E-03
(PID.TID 0000.0001) %MON advcfl_vvel_max              =   4.8945745636591E-03
(PID.TID 0000.0001) %MON advcfl_wvel_max              =   4.3536075587617E-09
(PID.TID 0000.0001) %MON advcfl_W_hf_max              =   0.0000000000000E+00
(PID.TID 0000.0001) %MON pe_b_mean                    =   2.2530162702933E-07
(PID.TID 0000.0001) %MON ke_max                       =   3.3247921502977E-03
(PID.TID 0000.0001) %MON ke_mean                      =   1.1934386277744E-04
(PID.TID 0000.0001) %MON ke_vol                       =   7.2000000000000E+15
(PID.TID 0000.0001) %MON vort_r_min                   =  -1.4527244655275E-06
(PID.TID 0000.0001) %MON vort_r_max                   =   2.2385022731432E-06
(PID.TID 0000.0001) %MON vort_a_mean                  =   1.0600000000000E-04
(PID.TID 0000.0001) %MON vort_a_sd                    =   3.5359825515176E-06
(PID.TID 0000.0001) %MON vort_p_mean                  =   1.1130000000000E-04
(PID.TID 0000.0001) %MON vort_p_sd                    =   4.1151305254382E-05
(PID.TID 0000.0001) %MON surfExpan_theta_mean         =   6.7910516716236E-20
(PID.TID 0000.0001) %MON surfExpan_salt_mean          =   1.0186593297274E-19
(PID.TID 0000.0001) // =======================================================
(PID.TID 0000.0001) // End MONITOR dynamic field statistics
(PID.TID 0000.0001) // =======================================================
 cg2d: Sum(rhs),rhsMax =  -1.95384661225710E-04  1.35367180628083E-01
 cg2d: Sum(rhs),rhsMax =  -1.94809555188425E-04  1.35366333871573E-01
 cg2d: Sum(rhs),rhsMax =  -1.94235404546739E-04  1.35365493797379E-01
 cg2d: Sum(rhs),rhsMax =  -1.93662212155748E-04  1.35364660410896E-01
 cg2d: Sum(rhs),rhsMax =  -1.93089980936108E-04  1.35363833717504E-01
 cg2d: Sum(rhs),rhsMax =  -1.92518713711673E-04  1.35363013722569E-01
 cg2d: Sum(rhs),rhsMax =  -1.91948413407633E-04  1.35362200431439E-01
 cg2d: Sum(rhs),rhsMax =  -1.91379082935925E-04  1.35361393849446E-01
 cg2d: Sum(rhs),rhsMax =  -1.90810725127956E-04  1.35360593981907E-01
 cg2d: Sum(rhs),rhsMax =  -1.90243342906674E-04  1.35359800834125E-01
 cg2d: Sum(rhs),rhsMax =  -1.89676939179062E-04  1.35359014411383E-01
 cg2d: Sum(rhs),rhsMax =  -1.89111516692116E-04  1.35358234718951E-01
 cg2d: Sum(rhs),rhsMax =  -1.88547078287033E-04  1.35357461762082E-01
 cg2d: Sum(rhs),rhsMax =  -1.87983626948152E-04  1.35356695546013E-01
 cg2d: Sum(rhs),rhsMax =  -1.87421165412368E-04  1.35355936075967E-01
 cg2d: Sum(rhs),rhsMax =  -1.86859696583618E-04  1.35355183357148E-01
 cg2d: Sum(rhs),rhsMax =  -1.86299223202865E-04  1.35354437394746E-01
 cg2d: Sum(rhs),rhsMax =  -1.85739748176947E-04  1.35353698193935E-01
 cg2d: Sum(rhs),rhsMax =  -1.85181274261910E-04  1.35352965759870E-01
 cg2d: Sum(rhs),rhsMax =  -1.84623804298323E-04  1.35352240097696E-01
 cg2d: Sum(rhs),rhsMax =  -1.84067341099789E-04  1.35351521212536E-01
 cg2d: Sum(rhs),rhsMax =  -1.83511887517513E-04  1.35350809109499E-01
 cg2d: Sum(rhs),rhsMax =  -1.82957446281193E-04  1.35350103793680E-01
 cg2d: Sum(rhs),rhsMax =  -1.82404020090729E-04  1.35349405270155E-01
 cg2d: Sum(rhs),rhsMax =  -1.81851611902172E-04  1.35348713543985E-01
 cg2d: Sum(rhs),rhsMax =  -1.81300224347729E-04  1.35348028620215E-01
 cg2d: Sum(rhs),rhsMax =  -1.80749860214395E-04  1.35347350503875E-01
 cg2d: Sum(rhs),rhsMax =  -1.80200522261260E-04  1.35346679199975E-01
 cg2d: Sum(rhs),rhsMax =  -1.79652213176526E-04  1.35346014713514E-01
 cg2d: Sum(rhs),rhsMax =  -1.79104935821814E-04  1.35345357049471E-01
 cg2d: Sum(rhs),rhsMax =  -1.78558692848315E-04  1.35344706212811E-01
 cg2d: Sum(rhs),rhsMax =  -1.78013486975603E-04  1.35344062208480E-01
 cg2d: Sum(rhs),rhsMax =  -1.77469320901607E-04  1.35343425041411E-01
 cg2d: Sum(rhs),rhsMax =  -1.76926197405373E-04  1.35342794716520E-01
 cg2d: Sum(rhs),rhsMax =  -1.76384119106122E-04  1.35342171238705E-01
 cg2d: Sum(rhs),rhsMax =  -1.75843088598729E-04  1.35341554612851E-01
 cg2d: Sum(rhs),rhsMax =  -1.75303108776404E-04  1.35340944843821E-01
 cg2d: Sum(rhs),rhsMax =  -1.74764182028525E-04  1.35340341936468E-01
 cg2d: Sum(rhs),rhsMax =  -1.74226311185261E-04  1.35339745895625E-01
 cg2d: Sum(rhs),rhsMax =  -1.73689498899895E-04  1.35339156726110E-01
 cg2d: Sum(rhs),rhsMax =  -1.73153747629821E-04  1.35338574432725E-01
 cg2d: Sum(rhs),rhsMax =  -1.72619060155810E-04  1.35337999020253E-01
 cg2d: Sum(rhs),rhsMax =  -1.72085438991745E-04  1.35337430493466E-01
 cg2d: Sum(rhs),rhsMax =  -1.71552886812410E-04  1.35336868857113E-01
 cg2d: Sum(rhs),rhsMax =  -1.71021406052297E-04  1.35336314115931E-01
 cg2d: Sum(rhs),rhsMax =  -1.70490999451016E-04  1.35335766274641E-01
 cg2d: Sum(rhs),rhsMax =  -1.69961669508058E-04  1.35335225337942E-01
 cg2d: Sum(rhs),rhsMax =  -1.69433418768557E-04  1.35334691310525E-01
 cg2d: Sum(rhs),rhsMax =  -1.68906249733553E-04  1.35334164197058E-01
 cg2d: Sum(rhs),rhsMax =  -1.68380164973916E-04  1.35333644002196E-01
 cg2d: Sum(rhs),rhsMax =  -1.67855167011846E-04  1.35333130730575E-01
 cg2d: Sum(rhs),rhsMax =  -1.67331258287835E-04  1.35332624386814E-01
 cg2d: Sum(rhs),rhsMax =  -1.66808441352576E-04  1.35332124975522E-01
 cg2d: Sum(rhs),rhsMax =  -1.66286718524349E-04  1.35331632501282E-01
 cg2d: Sum(rhs),rhsMax =  -1.65766092486833E-04  1.35331146968667E-01
 cg2d: Sum(rhs),rhsMax =  -1.65246565447614E-04  1.35330668382233E-01
 cg2d: Sum(rhs),rhsMax =  -1.64728140082271E-04  1.35330196746516E-01
 cg2d: Sum(rhs),rhsMax =  -1.64210818618624E-04  1.35329732066038E-01
 cg2d: Sum(rhs),rhsMax =  -1.63694603462927E-04  1.35329274345305E-01
 cg2d: Sum(rhs),rhsMax =  -1.63179497157987E-04  1.35328823588804E-01
 cg2d: Sum(rhs),rhsMax =  -1.62665501839244E-04  1.35328379801006E-01
 cg2d: Sum(rhs),rhsMax =  -1.62152620003478E-04  1.35327942986369E-01
 cg2d: Sum(rhs),rhsMax =  -1.61640853955409E-04  1.35327513149329E-01
 cg2d: Sum(rhs),rhsMax =  -1.61130206083580E-04  1.35327090294309E-01
 cg2d: Sum(rhs),rhsMax =  -1.60620678563837E-04  1.35326674425712E-01
 cg2d: Sum(rhs),rhsMax =  -1.60112273819516E-04  1.35326265547929E-01
 cg2d: Sum(rhs),rhsMax =  -1.59604994015352E-04  1.35325863665331E-01
 cg2d: Sum(rhs),rhsMax =  -1.59098841431882E-04  1.35325468782272E-01
 cg2d: Sum(rhs),rhsMax =  -1.58593818382568E-04  1.35325080903092E-01
 cg2d: Sum(rhs),rhsMax =  -1.58089927044588E-04  1.35324700032112E-01
 cg2d: Sum(rhs),rhsMax =  -1.57587169507698E-04  1.35324326173635E-01
 cg2d: Sum(rhs),rhsMax =  -1.57085548073171E-04  1.35323959331951E-01
(PID.TID 0000.0001)      cg2d_init_res =   5.24433960854164E-04
(PID.TID 0000.0001)      cg2d_iters(min,last) =      -1      76
(PID.TID 0000.0001)      cg2d_last_res =   9.76825677805856E-08
(PID.TID 0000.0001) // =======================================================
(PID.TID 0000.0001) // Begin MONITOR dynamic field statistics
(PID.TID 0000.0001) // =======================================================
(PID.TID 0000.0001) %MON time_tsnumber                =                 19512
(PID.TID 0000.0001) %MON time_secondsf                =   2.3414400000000E+07
(PID.TID 0000.0001) %MON dynstat_eta_max              =   4.5873605723149E-02
(PID.TID 0000.0001) %MON dynstat_eta_min              =  -2.0541076215406E-02
(PID.TID 0000.0001) %MON dynstat_eta_mean             =   1.0594827310398E-07
(PID.TID 0000.0001) %MON dynstat_eta_sd               =   1.5175275591096E-02
(PID.TID 0000.0001) %MON dynstat_eta_del2             =   1.7591740811025E-05
(PID.TID 0000.0001) %MON dynstat_uvel_max             =   3.0286340085019E-02
(PID.TID 0000.0001) %MON dynstat_uvel_min             =  -1.4975963579442E-02
(PID.TID 0000.0001) %MON dynstat_uvel_mean            =   4.5472497130525E-08
(PID.TID 0000.0001) %MON dynstat_uvel_sd              =   6.2122852411141E-03
(PID.TID 0000.0001) %MON dynstat_uvel_del2            =   7.5609638986875E-06
(PID.TID 0000.0001) %MON dynstat_vvel_max             =   8.1529776202984E-02
(PID.TID 0000.0001) %MON dynstat_vvel_min             =  -3.1571724329871E-02
(PID.TID 0000.0001) %MON dynstat_vvel_mean            =  -1.4021703573236E-08
(PID.TID 0000.0001) %MON dynstat_vvel_sd              =   1.4288957233914E-02
(PID.TID 0000.0001) %MON dynstat_vvel_del2            =   7.3153270766006E-05
(PID.TID 0000.0001) %MON dynstat_wvel_max             =   9.0007949531355E-09
(PID.TID 0000.0001) %MON dynstat_wvel_min             =  -3.4484792983858E-09
(PID.TID 0000.0001) %MON dynstat_wvel_mean            =   1.3749624688191E-21
(PID.TID 0000.0001) %MON dynstat_wvel_sd              =   3.3195814886643E-09
(PID.TID 0000.0001) %MON dynstat_wvel_del2            =   1.0484991457165E-12
(PID.TID 0000.0001) %MON dynstat_theta_max            =   2.0000000000000E+01
(PID.TID 0000.0001) %MON dynstat_theta_min            =   2.0000000000000E+01
(PID.TID 0000.0001) %MON dynstat_theta_mean           =   2.0000000000000E+01
(PID.TID 0000.0001) %MON dynstat_theta_sd             =   0.0000000000000E+00
(PID.TID 0000.0001) %MON dynstat_theta_del2           =   0.0000000000000E+00
(PID.TID 0000.0001) %MON dynstat_salt_max             =   3.0000000000000E+01
(PID.TID 0000.0001) %MON dynstat_salt_min             =   3.0000000000000E+01
(PID.TID 0000.0001) %MON dynstat_salt_mean            =   3.0000000000000E+01
(PID.TID 0000.0001) %MON dynstat_salt_sd              =   0.0000000000000E+00
(PID.TID 0000.0001) %MON dynstat_salt_del2            =   0.0000000000000E+00
(PID.TID 0000.0001) %MON trAdv_CFL_u_max              =   1.8171959796117E-03
(PID.TID 0000.0001) %MON trAdv_CFL_v_max              =   4.8918173017854E-03
(PID.TID 0000.0001) %MON trAdv_CFL_w_max              =   2.1605011059204E-09
(PID.TID 0000.0001) %MON advcfl_uvel_max              =   1.8171804051012E-03
(PID.TID 0000.0001) %MON advcfl_vvel_max              =   4.8917865721791E-03
(PID.TID 0000.0001) %MON advcfl_wvel_max              =   4.3203815775050E-09
(PID.TID 0000.0001) %MON advcfl_W_hf_max              =   0.0000000000000E+00
(PID.TID 0000.0001) %MON pe_b_mean                    =   2.2591349848067E-07
(PID.TID 0000.0001) %MON ke_max                       =   3.3209417407226E-03
(PID.TID 0000.0001) %MON ke_mean                      =   1.1936033681966E-04
(PID.TID 0000.0001) %MON ke_vol                       =   7.2000000000000E+15
(PID.TID 0000.0001) %MON vort_r_min                   =  -1.4518513037142E-06
(PID.TID 0000.0001) %MON vort_r_max                   =   2.2382765514290E-06
(PID.TID 0000.0001) %MON vort_a_mean                  =   1.0600000000000E-04
(PID.TID 0000.0001) %MON vort_a_sd                    =   3.5359514071789E-06
(PID.TID 0000.0001) %MON vort_p_mean                  =   1.1130000000000E-04
(PID.TID 0000.0001) %MON vort_p_sd                    =   4.1151395124594E-05
(PID.TID 0000.0001) %MON surfExpan_theta_mean         =   2.7496740686830E-20
(PID.TID 0000.0001) %MON surfExpan_salt_mean          =   4.1243847843159E-20
(PID.TID 0000.0001) // =======================================================
(PID.TID 0000.0001) // End MONITOR dynamic field statistics
(PID.TID 0000.0001) // =======================================================
 cg2d: Sum(rhs),rhsMax =  -1.56585064947264E-04  1.35323599511332E-01
 cg2d: Sum(rhs),rhsMax =  -1.56085722260862E-04  1.35323246716031E-01
 cg2d: Sum(rhs),rhsMax =  -1.55587522069994E-04  1.35322900950287E-01
 cg2d: Sum(rhs),rhsMax =  -1.55090466540749E-04  1.35322562218319E-01
 cg2d: Sum(rhs),rhsMax =  -1.54594557677311E-04  1.35322230524333E-01
 cg2d: Sum(rhs),rhsMax =  -1.54099797646082E-04  1.35321905872515E-01
 cg2d: Sum(rhs),rhsMax =  -1.53606188481602E-04  1.35321588267037E-01
 cg2d: Sum(rhs),rhsMax =  -1.53113732203942E-04  1.35321277712052E-01
 cg2d: Sum(rhs),rhsMax =  -1.52622430786316E-04  1.35320974211695E-01
 cg2d: Sum(rhs),rhsMax =  -1.52132286318156E-04  1.35320677770088E-01
 cg2d: Sum(rhs),rhsMax =  -1.51643300646346E-04  1.35320388391333E-01
 cg2d: Sum(rhs),rhsMax =  -1.51155475784363E-04  1.35320106079517E-01
 cg2d: Sum(rhs),rhsMax =  -1.50668813680296E-04  1.35319830838707E-01
 cg2d: Sum(rhs),rhsMax =  -1.50183316210591E-04  1.35319562672957E-01
 cg2d: Sum(rhs),rhsMax =  -1.49698985234938E-04  1.35319301586302E-01
 cg2d: Sum(rhs),rhsMax =  -1.49215822632010E-04  1.35319047582761E-01
 cg2d: Sum(rhs),rhsMax =  -1.48733830294873E-04  1.35318800666333E-01
 cg2d: Sum(rhs),rhsMax =  -1.48253009998043E-04  1.35318560841005E-01
 cg2d: Sum(rhs),rhsMax =  -1.47773363552196E-04  1.35318328110743E-01
 cg2d: Sum(rhs),rhsMax =  -1.47294892688186E-04  1.35318102479497E-01
 cg2d: Sum(rhs),rhsMax =  -1.46817599116339E-04  1.35317883951200E-01
 cg2d: Sum(rhs),rhsMax =  -1.46341484621346E-04  1.35317672529770E-01
 cg2d: Sum(rhs),rhsMax =  -1.45866550804339E-04  1.35317468219105E-01
 cg2d: Sum(rhs),rhsMax =  -1.45392799395226E-04  1.35317271023088E-01
 cg2d: Sum(rhs),rhsMax =  -1.44920232012877E-04  1.35317080945584E-01
 cg2d: Sum(rhs),rhsMax =  -1.44448850364212E-04  1.35316897990440E-01
 cg2d: Sum(rhs),rhsMax =  -1.43978656000727E-04  1.35316722161488E-01
 cg2d: Sum(rhs),rhsMax =  -1.43509650387424E-04  1.35316553462542E-01
 cg2d: Sum(rhs),rhsMax =  -1.43041835265180E-04  1.35316391897398E-01
 cg2d: Sum(rhs),rhsMax =  -1.42575211918203E-04  1.35316237469837E-01
 cg2d: Sum(rhs),rhsMax =  -1.42109782012131E-04  1.35316090183619E-01
 cg2d: Sum(rhs),rhsMax =  -1.41645546888285E-04  1.35315950042493E-01
 cg2d: Sum(rhs),rhsMax =  -1.41182508071005E-04  1.35315817050184E-01
 cg2d: Sum(rhs),rhsMax =  -1.40720666875950E-04  1.35315691210404E-01
 cg2d: Sum(rhs),rhsMax =  -1.40260024711582E-04  1.35315572526848E-01
 cg2d: Sum(rhs),rhsMax =  -1.39800582922306E-04  1.35315461003191E-01
 cg2d: Sum(rhs),rhsMax =  -1.39342342888955E-04  1.35315356643095E-01
 cg2d: Sum(rhs),rhsMax =  -1.38885305803193E-04  1.35315259450199E-01
 cg2d: Sum(rhs),rhsMax =  -1.38429472961958E-04  1.35315169428130E-01
 cg2d: Sum(rhs),rhsMax =  -1.37974845562884E-04  1.35315086580496E-01
 cg2d: Sum(rhs),rhsMax =  -1.37521424873017E-04  1.35315010910887E-01
 cg2d: Sum(rhs),rhsMax =  -1.37069211973209E-04  1.35314942422876E-01
 cg2d: Sum(rhs),rhsMax =  -1.36618208032628E-04  1.35314881120020E-01
 cg2d: Sum(rhs),rhsMax =  -1.36168414147047E-04  1.35314827005856E-01
 cg2d: Sum(rhs),rhsMax =  -1.35719831466111E-04  1.35314780083908E-01
 cg2d: Sum(rhs),rhsMax =  -1.35272460869470E-04  1.35314740357678E-01
 cg2d: Sum(rhs),rhsMax =  -1.34826303499912E-04  1.35314707830654E-01
 cg2d: Sum(rhs),rhsMax =  -1.34381360291786E-04  1.35314682506305E-01
 cg2d: Sum(rhs),rhsMax =  -1.33937632168579E-04  1.35314664388084E-01
 cg2d: Sum(rhs),rhsMax =  -1.33495120120045E-04  1.35314653479426E-01
 cg2d: Sum(rhs),rhsMax =  -1.33053824875504E-04  1.35314649783747E-01
 cg2d: Sum(rhs),rhsMax =  -1.32613747297581E-04  1.35314653304448E-01
 cg2d: Sum(rhs),rhsMax =  -1.32174888340603E-04  1.35314664044912E-01
 cg2d: Sum(rhs),rhsMax =  -1.31737248739781E-04  1.35314682008504E-01
 cg2d: Sum(rhs),rhsMax =  -1.31300829115220E-04  1.35314707198572E-01
 cg2d: Sum(rhs),rhsMax =  -1.30865630214866E-04  1.35314739618447E-01
 cg2d: Sum(rhs),rhsMax =  -1.30431652626182E-04  1.35314779271442E-01
 cg2d: Sum(rhs),rhsMax =  -1.29998897066311E-04  1.35314826160852E-01
 cg2d: Sum(rhs),rhsMax =  -1.29567364095747E-04  1.35314880289957E-01
 cg2d: Sum(rhs),rhsMax =  -1.29137054336878E-04  1.35314941662017E-01
 cg2d: Sum(rhs),rhsMax =  -1.28707968235532E-04  1.35315010280274E-01
 cg2d: Sum(rhs),rhsMax =  -1.28280106305156E-04  1.35315086147956E-01
 cg2d: Sum(rhs),rhsMax =  -1.27853468920135E-04  1.35315169268271E-01
 cg2d: Sum(rhs),rhsMax =  -1.27428056594835E-04  1.35315259644409E-01
 cg2d: Sum(rhs),rhsMax =  -1.27003869578800E-04  1.35315357279545E-01
 cg2d: Sum(rhs),rhsMax =  -1.26580908307966E-04  1.35315462176834E-01
 cg2d: Sum(rhs),rhsMax =  -1.26159172862534E-04  1.35315574339413E-01
 cg2d: Sum(rhs),rhsMax =  -1.25738663672341E-04  1.35315693770406E-01
 cg2d: Sum(rhs),rhsMax =  -1.25319380869781E-04  1.35315820472914E-01
 cg2d: Sum(rhs),rhsMax =  -1.24901324738234E-04  1.35315954450024E-01
 cg2d: Sum(rhs),rhsMax =  -1.24484495260598E-04  1.35316095704804E-01
 cg2d: Sum(rhs),rhsMax =  -1.24068892582589E-04  1.35316244240304E-01
(PID.TID 0000.0001)      cg2d_init_res =   5.24730772889345E-04
(PID.TID 0000.0001)      cg2d_iters(min,last) =      -1      76
(PID.TID 0000.0001)      cg2d_last_res =   9.59283285577009E-08
(PID.TID 0000.0001) // =======================================================
(PID.TID 0000.0001) // Begin MONITOR dynamic field statistics
(PID.TID 0000.0001) // =======================================================
(PID.TID 0000.0001) %MON time_tsnumber                =                 19584
(PID.TID 0000.0001) %MON time_secondsf                =   2.3500800000000E+07
(PID.TID 0000.0001) %MON dynstat_eta_max              =   4.5625948030514E-02
(PID.TID 0000.0001) %MON dynstat_eta_min              =  -2.0770764990989E-02
(PID.TID 0000.0001) %MON dynstat_eta_mean             =   8.3662420287442E-08
(PID.TID 0000.0001) %MON dynstat_eta_sd               =   1.5218385606184E-02
(PID.TID 0000.0001) %MON dynstat_eta_del2             =   1.7575368480073E-05
(PID.TID 0000.0001) %MON dynstat_uvel_max             =   3.0271265085845E-02
(PID.TID 0000.0001) %MON dynstat_uvel_min             =  -1.4956736801260E-02
(PID.TID 0000.0001) %MON dynstat_uvel_mean            =   2.9573502350568E-08
(PID.TID 0000.0001) %MON dynstat_uvel_sd              =   6.2577772880768E-03
(PID.TID 0000.0001) %MON dynstat_uvel_del2            =   7.5850753100019E-06
(PID.TID 0000.0001) %MON dynstat_vvel_max             =   8.1503186445414E-02
(PID.TID 0000.0001) %MON dynstat_vvel_min             =  -3.1478740285790E-02
(PID.TID 0000.0001) %MON dynstat_vvel_mean            =  -1.4926156271924E-08
(PID.TID 0000.0001) %MON dynstat_vvel_sd              =   1.4275937970976E-02
(PID.TID 0000.0001) %MON dynstat_vvel_del2            =   7.3074357291763E-05
(PID.TID 0000.0001) %MON dynstat_wvel_max             =   8.9274898260192E-09
(PID.TID 0000.0001) %MON dynstat_wvel_min             =  -3.5599500220269E-09
(PID.TID 0000.0001) %MON dynstat_wvel_mean            =  -4.4908827274210E-23
(PID.TID 0000.0001) %MON dynstat_wvel_sd              =   3.3109987019486E-09
(PID.TID 0000.0001) %MON dynstat_wvel_del2            =   1.0395935214725E-12
(PID.TID 0000.0001) %MON dynstat_theta_max            =   2.0000000000000E+01
(PID.TID 0000.0001) %MON dynstat_theta_min            =   2.0000000000000E+01
(PID.TID 0000.0001) %MON dynstat_theta_mean           =   2.0000000000000E+01
(PID.TID 0000.0001) %MON dynstat_theta_sd             =   0.0000000000000E+00
(PID.TID 0000.0001) %MON dynstat_theta_del2           =   0.0000000000000E+00
(PID.TID 0000.0001) %MON dynstat_salt_max             =   3.0000000000000E+01
(PID.TID 0000.0001) %MON dynstat_salt_min             =   3.0000000000000E+01
(PID.TID 0000.0001) %MON dynstat_salt_mean            =   3.0000000000000E+01
(PID.TID 0000.0001) %MON dynstat_salt_sd              =   0.0000000000000E+00
(PID.TID 0000.0001) %MON dynstat_salt_del2            =   0.0000000000000E+00
(PID.TID 0000.0001) %MON trAdv_CFL_u_max              =   1.8162854804675E-03
(PID.TID 0000.0001) %MON trAdv_CFL_v_max              =   4.8902048533946E-03
(PID.TID 0000.0001) %MON trAdv_CFL_w_max              =   2.1429608164122E-09
(PID.TID 0000.0001) %MON advcfl_uvel_max              =   1.8162759051507E-03
(PID.TID 0000.0001) %MON advcfl_vvel_max              =   4.8901911867248E-03
(PID.TID 0000.0001) %MON advcfl_wvel_max              =   4.2851951164892E-09
(PID.TID 0000.0001) %MON advcfl_W_hf_max              =   0.0000000000000E+00
(PID.TID 0000.0001) %MON pe_b_mean                    =   2.2719887451667E-07
(PID.TID 0000.0001) %MON ke_max                       =   3.3186990733106E-03
(PID.TID 0000.0001) %MON ke_mean                      =   1.1945640592355E-04
(PID.TID 0000.0001) %MON ke_vol                       =   7.2000000000000E+15
(PID.TID 0000.0001) %MON vort_r_min                   =  -1.4510101140546E-06
(PID.TID 0000.0001) %MON vort_r_max                   =   2.2387178199436E-06
(PID.TID 0000.0001) %MON vort_a_mean                  =   1.0600000000000E-04
(PID.TID 0000.0001) %MON vort_a_sd                    =   3.5359254840901E-06
(PID.TID 0000.0001) %MON vort_p_mean                  =   1.1130000000000E-04
(PID.TID 0000.0001) %MON vort_p_sd                    =   4.1151485958583E-05
(PID.TID 0000.0001) %MON surfExpan_theta_mean         =  -9.0775781952996E-22
(PID.TID 0000.0001) %MON surfExpan_salt_mean          =  -1.3640052050808E-21
(PID.TID 0000.0001) // =======================================================
(PID.TID 0000.0001) // End MONITOR dynamic field statistics
(PID.TID 0000.0001) // =======================================================
 cg2d: Sum(rhs),rhsMax =  -1.23654516711968E-04  1.35316400059559E-01
 cg2d: Sum(rhs),rhsMax =  -1.23241367731873E-04  1.35316563165582E-01
 cg2d: Sum(rhs),rhsMax =  -1.22829445467589E-04  1.35316733561374E-01
 cg2d: Sum(rhs),rhsMax =  -1.22418749971221E-04  1.35316911249912E-01
 cg2d: Sum(rhs),rhsMax =  -1.22009281037851E-04  1.35317096234160E-01
 cg2d: Sum(rhs),rhsMax =  -1.21601038456545E-04  1.35317288517066E-01
 cg2d: Sum(rhs),rhsMax =  -1.21194022165110E-04  1.35317488101553E-01
 cg2d: Sum(rhs),rhsMax =  -1.20788231769517E-04  1.35317694990533E-01
 cg2d: Sum(rhs),rhsMax =  -1.20383667002223E-04  1.35317909186899E-01
 cg2d: Sum(rhs),rhsMax =  -1.19980327434642E-04  1.35318130693523E-01
 cg2d: Sum(rhs),rhsMax =  -1.19578212833787E-04  1.35318359513264E-01
 cg2d: Sum(rhs),rhsMax =  -1.19177322641119E-04  1.35318595648961E-01
 cg2d: Sum(rhs),rhsMax =  -1.18777656504035E-04  1.35318839103435E-01
 cg2d: Sum(rhs),rhsMax =  -1.18379213788466E-04  1.35319089879490E-01
 cg2d: Sum(rhs),rhsMax =  -1.17981993901171E-04  1.35319347979913E-01
 cg2d: Sum(rhs),rhsMax =  -1.17585996252550E-04  1.35319613407469E-01
 cg2d: Sum(rhs),rhsMax =  -1.17191220215603E-04  1.35319886164912E-01
 cg2d: Sum(rhs),rhsMax =  -1.16797665017880E-04  1.35320166254975E-01
 cg2d: Sum(rhs),rhsMax =  -1.16405329968726E-04  1.35320453680371E-01
 cg2d: Sum(rhs),rhsMax =  -1.16014214253363E-04  1.35320748443799E-01
 cg2d: Sum(rhs),rhsMax =  -1.15624316801660E-04  1.35321050547938E-01
 cg2d: Sum(rhs),rhsMax =  -1.15235636971634E-04  1.35321359995451E-01
 cg2d: Sum(rhs),rhsMax =  -1.14848173757525E-04  1.35321676788980E-01
 cg2d: Sum(rhs),rhsMax =  -1.14461926088000E-04  1.35322000931154E-01
 cg2d: Sum(rhs),rhsMax =  -1.14076892925466E-04  1.35322332424580E-01
 cg2d: Sum(rhs),rhsMax =  -1.13693073225331E-04  1.35322671271848E-01
 cg2d: Sum(rhs),rhsMax =  -1.13310465766792E-04  1.35323017475532E-01
 cg2d: Sum(rhs),rhsMax =  -1.12929069323955E-04  1.35323371038188E-01
 cg2d: Sum(rhs),rhsMax =  -1.12548882699833E-04  1.35323731962352E-01
 cg2d: Sum(rhs),rhsMax =  -1.12169904545279E-04  1.35324100250544E-01
 cg2d: Sum(rhs),rhsMax =  -1.11792133470972E-04  1.35324475905265E-01
 cg2d: Sum(rhs),rhsMax =  -1.11415568173041E-04  1.35324858929000E-01
 cg2d: Sum(rhs),rhsMax =  -1.11040207069193E-04  1.35325249324213E-01
 cg2d: Sum(rhs),rhsMax =  -1.10666048717783E-04  1.35325647093354E-01
 cg2d: Sum(rhs),rhsMax =  -1.10293091582215E-04  1.35326052238853E-01
 cg2d: Sum(rhs),rhsMax =  -1.09921333901303E-04  1.35326464763121E-01
 cg2d: Sum(rhs),rhsMax =  -1.09550774039249E-04  1.35326884668554E-01
 cg2d: Sum(rhs),rhsMax =  -1.09181410341329E-04  1.35327311957527E-01
 cg2d: Sum(rhs),rhsMax =  -1.08813240923269E-04  1.35327746632399E-01
 cg2d: Sum(rhs),rhsMax =  -1.08446263942262E-04  1.35328188695512E-01
 cg2d: Sum(rhs),rhsMax =  -1.08080477577910E-04  1.35328638149187E-01
 cg2d: Sum(rhs),rhsMax =  -1.07715879721175E-04  1.35329094995730E-01
 cg2d: Sum(rhs),rhsMax =  -1.07352468526967E-04  1.35329559237428E-01
 cg2d: Sum(rhs),rhsMax =  -1.06990241727382E-04  1.35330030876549E-01
 cg2d: Sum(rhs),rhsMax =  -1.06629197272374E-04  1.35330509915344E-01
 cg2d: Sum(rhs),rhsMax =  -1.06269332996124E-04  1.35330996356048E-01
 cg2d: Sum(rhs),rhsMax =  -1.05910646606327E-04  1.35331490200873E-01
 cg2d: Sum(rhs),rhsMax =  -1.05553135744515E-04  1.35331991452020E-01
 cg2d: Sum(rhs),rhsMax =  -1.05196798036838E-04  1.35332500111665E-01
 cg2d: Sum(rhs),rhsMax =  -1.04841631026313E-04  1.35333016181971E-01
 cg2d: Sum(rhs),rhsMax =  -1.04487632237379E-04  1.35333539665079E-01
 cg2d: Sum(rhs),rhsMax =  -1.04134799073889E-04  1.35334070563117E-01
 cg2d: Sum(rhs),rhsMax =  -1.03783128884354E-04  1.35334608878190E-01
 cg2d: Sum(rhs),rhsMax =  -1.03432618914857E-04  1.35335154612389E-01
 cg2d: Sum(rhs),rhsMax =  -1.03083266354908E-04  1.35335707767782E-01
 cg2d: Sum(rhs),rhsMax =  -1.02735068386894E-04  1.35336268346426E-01
 cg2d: Sum(rhs),rhsMax =  -1.02388022164910E-04  1.35336836350353E-01
 cg2d: Sum(rhs),rhsMax =  -1.02042124552053E-04  1.35337411781582E-01
 cg2d: Sum(rhs),rhsMax =  -1.01697372490523E-04  1.35337994642111E-01
 cg2d: Sum(rhs),rhsMax =  -1.01353762848979E-04  1.35338584933922E-01
 cg2d: Sum(rhs),rhsMax =  -1.01011292449145E-04  1.35339182658975E-01
 cg2d: Sum(rhs),rhsMax =  -1.00669957850168E-04  1.35339787819218E-01
 cg2d: Sum(rhs),rhsMax =  -1.00329755670300E-04  1.35340400416577E-01
 cg2d: Sum(rhs),rhsMax =  -9.99906824975258E-05  1.35341020452960E-01
 cg2d: Sum(rhs),rhsMax =  -9.96527347729313E-05  1.35341647930258E-01
 cg2d: Sum(rhs),rhsMax =  -9.93159088042775E-05  1.35342282850343E-01
 cg2d: Sum(rhs),rhsMax =  -9.89802007806536E-05  1.35342925215069E-01
 cg2d: Sum(rhs),rhsMax =  -9.86456069053164E-05  1.35343575026274E-01
 cg2d: Sum(rhs),rhsMax =  -9.83121231935271E-05  1.35344232285774E-01
 cg2d: Sum(rhs),rhsMax =  -9.79797456355383E-05  1.35344896995370E-01
 cg2d: Sum(rhs),rhsMax =  -9.76484700909728E-05  1.35345569156845E-01
 cg2d: Sum(rhs),rhsMax =  -9.73182921998944E-05  1.35346248771960E-01
(PID.TID 0000.0001)      cg2d_init_res =   5.25441772542651E-04
(PID.TID 0000.0001)      cg2d_iters(min,last) =      -1      76
(PID.TID 0000.0001)      cg2d_last_res =   9.03384602304485E-08
(PID.TID 0000.0001) // =======================================================
(PID.TID 0000.0001) // Begin MONITOR dynamic field statistics
(PID.TID 0000.0001) // =======================================================
(PID.TID 0000.0001) %MON time_tsnumber                =                 19656
(PID.TID 0000.0001) %MON time_secondsf                =   2.3587200000000E+07
(PID.TID 0000.0001) %MON dynstat_eta_max              =   4.5396382133952E-02
(PID.TID 0000.0001) %MON dynstat_eta_min              =  -2.1005889638584E-02
(PID.TID 0000.0001) %MON dynstat_eta_mean             =   6.5635960372694E-08
(PID.TID 0000.0001) %MON dynstat_eta_sd               =   1.5283352634630E-02
(PID.TID 0000.0001) %MON dynstat_eta_del2             =   1.7559604483686E-05
(PID.TID 0000.0001) %MON dynstat_uvel_max             =   3.0263588451723E-02
(PID.TID 0000.0001) %MON dynstat_uvel_min             =  -1.4944642655255E-02
(PID.TID 0000.0001) %MON dynstat_uvel_mean            =   1.3292456875492E-08
(PID.TID 0000.0001) %MON dynstat_uvel_sd              =   6.3076999744616E-03
(PID.TID 0000.0001) %MON dynstat_uvel_del2            =   7.6129812661322E-06
(PID.TID 0000.0001) %MON dynstat_vvel_max             =   8.1497600355260E-02
(PID.TID 0000.0001) %MON dynstat_vvel_min             =  -3.1374409065673E-02
(PID.TID 0000.0001) %MON dynstat_vvel_mean            =  -1.5714170127062E-08
(PID.TID 0000.0001) %MON dynstat_vvel_sd              =   1.4266462701115E-02
(PID.TID 0000.0001) %MON dynstat_vvel_del2            =   7.3004729544133E-05
(PID.TID 0000.0001) %MON dynstat_wvel_max             =   8.8386524075759E-09
(PID.TID 0000.0001) %MON dynstat_wvel_min             =  -3.8635461183731E-09
(PID.TID 0000.0001) %MON dynstat_wvel_mean            =  -5.8374891725382E-21
(PID.TID 0000.0001) %MON dynstat_wvel_sd              =   3.3036515069198E-09
(PID.TID 0000.0001) %MON dynstat_wvel_del2            =   1.0297662153364E-12
(PID.TID 0000.0001) %MON dynstat_theta_max            =   2.0000000000000E+01
(PID.TID 0000.0001) %MON dynstat_theta_min            =   2.0000000000000E+01
(PID.TID 0000.0001) %MON dynstat_theta_mean           =   2.0000000000000E+01
(PID.TID 0000.0001) %MON dynstat_theta_sd             =   0.0000000000000E+00
(PID.TID 0000.0001) %MON dynstat_theta_del2           =   0.0000000000000E+00
(PID.TID 0000.0001) %MON dynstat_salt_max             =   3.0000000000000E+01
(PID.TID 0000.0001) %MON dynstat_salt_min             =   3.0000000000000E+01
(PID.TID 0000.0001) %MON dynstat_salt_mean            =   3.0000000000000E+01
(PID.TID 0000.0001) %MON dynstat_salt_sd              =   0.0000000000000E+00
(PID.TID 0000.0001) %MON dynstat_salt_del2            =   0.0000000000000E+00
(PID.TID 0000.0001) %MON trAdv_CFL_u_max              =   1.8158185671510E-03
(PID.TID 0000.0001) %MON trAdv_CFL_v_max              =   4.8898517934376E-03
(PID.TID 0000.0001) %MON trAdv_CFL_w_max              =   2.1216550798476E-09
(PID.TID 0000.0001) %MON advcfl_uvel_max              =   1.8158153071034E-03
(PID.TID 0000.0001) %MON advcfl_vvel_max              =   4.8898560213156E-03
(PID.TID 0000.0001) %MON advcfl_wvel_max              =   4.2425531556364E-09
(PID.TID 0000.0001) %MON advcfl_W_hf_max              =   0.0000000000000E+00
(PID.TID 0000.0001) %MON pe_b_mean                    =   2.2914283127134E-07
(PID.TID 0000.0001) %MON ke_max                       =   3.3181549261190E-03
(PID.TID 0000.0001) %MON ke_mean                      =   1.1963185984386E-04
(PID.TID 0000.0001) %MON ke_vol                       =   7.2000000000000E+15
(PID.TID 0000.0001) %MON vort_r_min                   =  -1.4502169278051E-06
(PID.TID 0000.0001) %MON vort_r_max                   =   2.2398421359029E-06
(PID.TID 0000.0001) %MON vort_a_mean                  =   1.0600000000000E-04
(PID.TID 0000.0001) %MON vort_a_sd                    =   3.5359052006888E-06
(PID.TID 0000.0001) %MON vort_p_mean                  =   1.1130000000000E-04
(PID.TID 0000.0001) %MON vort_p_sd                    =   4.1151576869108E-05
(PID.TID 0000.0001) %MON surfExpan_theta_mean         =  -1.1675061904902E-19
(PID.TID 0000.0001) %MON surfExpan_salt_mean          =  -1.7512652069248E-19
(PID.TID 0000.0001) // =======================================================
(PID.TID 0000.0001) // End MONITOR dynamic field statistics
(PID.TID 0000.0001) // =======================================================
 cg2d: Sum(rhs),rhsMax =  -9.69892077389411E-05  1.35346935842463E-01
 cg2d: Sum(rhs),rhsMax =  -9.65666937028575E-05  1.35347629945200E-01
 cg2d: Sum(rhs),rhsMax =  -9.61457037019012E-05  1.35348331936532E-01
 cg2d: Sum(rhs),rhsMax =  -9.57259694639072E-05  1.35349041387591E-01
 cg2d: Sum(rhs),rhsMax =  -9.53076032736448E-05  1.35349758299791E-01
 cg2d: Sum(rhs),rhsMax =  -9.48905809020446E-05  1.35350482670611E-01
 cg2d: Sum(rhs),rhsMax =  -9.44749083053578E-05  1.35351214508881E-01
 cg2d: Sum(rhs),rhsMax =  -9.40605773362083E-05  1.35351953814924E-01
 cg2d: Sum(rhs),rhsMax =  -9.36475847624647E-05  1.35352700591663E-01
 cg2d: Sum(rhs),rhsMax =  -9.32359257859736E-05  1.35353454839295E-01
 cg2d: Sum(rhs),rhsMax =  -9.28255969911834E-05  1.35354216559288E-01
 cg2d: Sum(rhs),rhsMax =  -9.24165947625601E-05  1.35354985752525E-01
 cg2d: Sum(rhs),rhsMax =  -9.20089152948054E-05  1.35355762420481E-01
 cg2d: Sum(rhs),rhsMax =  -9.16025540234787E-05  1.35356546564531E-01
 cg2d: Sum(rhs),rhsMax =  -9.11975059630895E-05  1.35357338186247E-01
 cg2d: Sum(rhs),rhsMax =  -9.07937656891289E-05  1.35358137287153E-01
 cg2d: Sum(rhs),rhsMax =  -9.03913274934035E-05  1.35358943868807E-01
 cg2d: Sum(rhs),rhsMax =  -8.99901855745365E-05  1.35359757932731E-01
 cg2d: Sum(rhs),rhsMax =  -8.95903337348007E-05  1.35360579480412E-01
 cg2d: Sum(rhs),rhsMax =  -8.91917655062979E-05  1.35361408513286E-01
 cg2d: Sum(rhs),rhsMax =  -8.87944743879730E-05  1.35362245032739E-01
 cg2d: Sum(rhs),rhsMax =  -8.83984532201627E-05  1.35363089040106E-01
 cg2d: Sum(rhs),rhsMax =  -8.80036946699749E-05  1.35363940536693E-01
 cg2d: Sum(rhs),rhsMax =  -8.76101909665665E-05  1.35364799523789E-01
 cg2d: Sum(rhs),rhsMax =  -8.72179337637943E-05  1.35365666002676E-01
 cg2d: Sum(rhs),rhsMax =  -8.68269145033020E-05  1.35366539974635E-01
 cg2d: Sum(rhs),rhsMax =  -8.64371241056016E-05  1.35367421440947E-01
 cg2d: Sum(rhs),rhsMax =  -8.60485531669290E-05  1.35368310402876E-01
 cg2d: Sum(rhs),rhsMax =  -8.56611915569256E-05  1.35369206861677E-01
 cg2d: Sum(rhs),rhsMax =  -8.52750291204466E-05  1.35370110818577E-01
 cg2d: Sum(rhs),rhsMax =  -8.48900549205896E-05  1.35371022274783E-01
 cg2d: Sum(rhs),rhsMax =  -8.45062575040969E-05  1.35371941231472E-01
 cg2d: Sum(rhs),rhsMax =  -8.41236252150969E-05  1.35372867689807E-01
 cg2d: Sum(rhs),rhsMax =  -8.37421455636240E-05  1.35373801650921E-01
 cg2d: Sum(rhs),rhsMax =  -8.33618056987851E-05  1.35374743115938E-01
 cg2d: Sum(rhs),rhsMax =  -8.29825922591338E-05  1.35375692085959E-01
 cg2d: Sum(rhs),rhsMax =  -8.26044910523073E-05  1.35376648562074E-01
 cg2d: Sum(rhs),rhsMax =  -8.22274876798347E-05  1.35377612545351E-01
 cg2d: Sum(rhs),rhsMax =  -8.18515669972920E-05  1.35378584036847E-01
 cg2d: Sum(rhs),rhsMax =  -8.14767132663614E-05  1.35379563037596E-01
 cg2d: Sum(rhs),rhsMax =  -8.11029101646741E-05  1.35380549548615E-01
 cg2d: Sum(rhs),rhsMax =  -8.07301408980443E-05  1.35381543570902E-01
 cg2d: Sum(rhs),rhsMax =  -8.03583879328698E-05  1.35382545105435E-01
 cg2d: Sum(rhs),rhsMax =  -7.99876332257888E-05  1.35383554153175E-01
 cg2d: Sum(rhs),rhsMax =  -7.96178579971748E-05  1.35384570715063E-01
 cg2d: Sum(rhs),rhsMax =  -7.92490430611371E-05  1.35385594792020E-01
 cg2d: Sum(rhs),rhsMax =  -7.88811685423912E-05  1.35386626384951E-01
 cg2d: Sum(rhs),rhsMax =  -7.85142137729256E-05  1.35387665494743E-01
 cg2d: Sum(rhs),rhsMax =  -7.81481578281829E-05  1.35388712122265E-01
 cg2d: Sum(rhs),rhsMax =  -7.77829789645555E-05  1.35389766268365E-01
 cg2d: Sum(rhs),rhsMax =  -7.74186550611860E-05  1.35390827933876E-01
 cg2d: Sum(rhs),rhsMax =  -7.70551632180662E-05  1.35391897119610E-01
 cg2d: Sum(rhs),rhsMax =  -7.66924800252719E-05  1.35392973826362E-01
 cg2d: Sum(rhs),rhsMax =  -7.63305817483391E-05  1.35394058054908E-01
 cg2d: Sum(rhs),rhsMax =  -7.59694439588753E-05  1.35395149806006E-01
 cg2d: Sum(rhs),rhsMax =  -7.56090416890037E-05  1.35396249080396E-01
 cg2d: Sum(rhs),rhsMax =  -7.52493497065349E-05  1.35397355878796E-01
 cg2d: Sum(rhs),rhsMax =  -7.48903420514889E-05  1.35398470201910E-01
 cg2d: Sum(rhs),rhsMax =  -7.45319925905732E-05  1.35399592050421E-01
 cg2d: Sum(rhs),rhsMax =  -7.41742746948534E-05  1.35400721424995E-01
 cg2d: Sum(rhs),rhsMax =  -7.38171613594574E-05  1.35401858326279E-01
 cg2d: Sum(rhs),rhsMax =  -7.34606252891920E-05  1.35403002754902E-01
 cg2d: Sum(rhs),rhsMax =  -7.31046388727750E-05  1.35404154711471E-01
 cg2d: Sum(rhs),rhsMax =  -7.27491742908469E-05  1.35405314196581E-01
 cg2d: Sum(rhs),rhsMax =  -7.23942034195277E-05  1.35406481210804E-01
 cg2d: Sum(rhs),rhsMax =  -7.20396980472019E-05  1.35407655754693E-01
 cg2d: Sum(rhs),rhsMax =  -7.16856296189422E-05  1.35408837828787E-01
 cg2d: Sum(rhs),rhsMax =  -7.13319697560636E-05  1.35410027433601E-01
 cg2d: Sum(rhs),rhsMax =  -7.09786896644360E-05  1.35411224569636E-01
 cg2d: Sum(rhs),rhsMax =  -7.06257609494028E-05  1.35412429237371E-01
 cg2d: Sum(rhs),rhsMax =  -7.02731549227708E-05  1.35413641437269E-01
 cg2d: Sum(rhs),rhsMax =  -6.99208429063665E-05  1.35414861169773E-01
(PID.TID 0000.0001)      cg2d_init_res =   5.26497046038236E-04
(PID.TID 0000.0001)      cg2d_iters(min,last) =      -1      75
(PID.TID 0000.0001)      cg2d_last_res =   9.02046940885986E-08
(PID.TID 0000.0001) // =======================================================
(PID.TID 0000.0001) // Begin MONITOR dynamic field statistics
(PID.TID 0000.0001) // =======================================================
(PID.TID 0000.0001) %MON time_tsnumber                =                 19728
(PID.TID 0000.0001) %MON time_secondsf                =   2.3673600000000E+07
(PID.TID 0000.0001) %MON dynstat_eta_max              =   4.5188446080243E-02
(PID.TID 0000.0001) %MON dynstat_eta_min              =  -2.1243604540257E-02
(PID.TID 0000.0001) %MON dynstat_eta_mean             =   4.7103671520775E-08
(PID.TID 0000.0001) %MON dynstat_eta_sd               =   1.5369128388021E-02
(PID.TID 0000.0001) %MON dynstat_eta_del2             =   1.7544653469720E-05
(PID.TID 0000.0001) %MON dynstat_uvel_max             =   3.0263645630031E-02
(PID.TID 0000.0001) %MON dynstat_uvel_min             =  -1.4939872426172E-02
(PID.TID 0000.0001) %MON dynstat_uvel_mean            =  -3.1529523795164E-09
(PID.TID 0000.0001) %MON dynstat_uvel_sd              =   6.3613740097910E-03
(PID.TID 0000.0001) %MON dynstat_uvel_del2            =   7.6443098879966E-06
(PID.TID 0000.0001) %MON dynstat_vvel_max             =   8.1513877990100E-02
(PID.TID 0000.0001) %MON dynstat_vvel_min             =  -3.1259638482597E-02
(PID.TID 0000.0001) %MON dynstat_vvel_mean            =  -1.6377721222074E-08
(PID.TID 0000.0001) %MON dynstat_vvel_sd              =   1.4260708303013E-02
(PID.TID 0000.0001) %MON dynstat_vvel_del2            =   7.2945486598049E-05
(PID.TID 0000.0001) %MON dynstat_wvel_max             =   8.7251427289448E-09
(PID.TID 0000.0001) %MON dynstat_wvel_min             =  -4.1237254915177E-09
(PID.TID 0000.0001) %MON dynstat_wvel_mean            =  -1.8790650655218E-21
(PID.TID 0000.0001) %MON dynstat_wvel_sd              =   3.2975069498540E-09
(PID.TID 0000.0001) %MON dynstat_wvel_del2            =   1.0138974832693E-12
(PID.TID 0000.0001) %MON dynstat_theta_max            =   2.0000000000000E+01
(PID.TID 0000.0001) %MON dynstat_theta_min            =   2.0000000000000E+01
(PID.TID 0000.0001) %MON dynstat_theta_mean           =   2.0000000000000E+01
(PID.TID 0000.0001) %MON dynstat_theta_sd             =   0.0000000000000E+00
(PID.TID 0000.0001) %MON dynstat_theta_del2           =   0.0000000000000E+00
(PID.TID 0000.0001) %MON dynstat_salt_max             =   3.0000000000000E+01
(PID.TID 0000.0001) %MON dynstat_salt_min             =   3.0000000000000E+01
(PID.TID 0000.0001) %MON dynstat_salt_mean            =   3.0000000000000E+01
(PID.TID 0000.0001) %MON dynstat_salt_sd              =   0.0000000000000E+00
(PID.TID 0000.0001) %MON dynstat_salt_del2            =   0.0000000000000E+00
(PID.TID 0000.0001) %MON trAdv_CFL_u_max              =   1.8158154392849E-03
(PID.TID 0000.0001) %MON trAdv_CFL_v_max              =   4.8908099537828E-03
(PID.TID 0000.0001) %MON trAdv_CFL_w_max              =   2.0944278043346E-09
(PID.TID 0000.0001) %MON advcfl_uvel_max              =   1.8158187378019E-03
(PID.TID 0000.0001) %MON advcfl_vvel_max              =   4.8908326794060E-03
(PID.TID 0000.0001) %MON advcfl_wvel_max              =   4.1880685098935E-09
(PID.TID 0000.0001) %MON advcfl_W_hf_max              =   0.0000000000000E+00
(PID.TID 0000.0001) %MON pe_b_mean                    =   2.3172211536889E-07
(PID.TID 0000.0001) %MON ke_max                       =   3.3193794758485E-03
(PID.TID 0000.0001) %MON ke_mean                      =   1.1988548295986E-04
(PID.TID 0000.0001) %MON ke_vol                       =   7.2000000000000E+15
(PID.TID 0000.0001) %MON vort_r_min                   =  -1.4495204937291E-06
(PID.TID 0000.0001) %MON vort_r_max                   =   2.2416566517569E-06
(PID.TID 0000.0001) %MON vort_a_mean                  =   1.0600000000000E-04
(PID.TID 0000.0001) %MON vort_a_sd                    =   3.5358909107280E-06
(PID.TID 0000.0001) %MON vort_p_mean                  =   1.1130000000000E-04
(PID.TID 0000.0001) %MON vort_p_sd                    =   4.1151666956410E-05
(PID.TID 0000.0001) %MON surfExpan_theta_mean         =  -3.7592605571667E-20
(PID.TID 0000.0001) %MON surfExpan_salt_mean          =  -5.6386776729293E-20
(PID.TID 0000.0001) // =======================================================
(PID.TID 0000.0001) // End MONITOR dynamic field statistics
(PID.TID 0000.0001) // =======================================================
 cg2d: Sum(rhs),rhsMax =  -6.95687965424014E-05  1.35416088435310E-01
 cg2d: Sum(rhs),rhsMax =  -6.92169873417843E-05  1.35417323234285E-01
 cg2d: Sum(rhs),rhsMax =  -6.88653871985002E-05  1.35418565567087E-01
 cg2d: Sum(rhs),rhsMax =  -6.85139681430831E-05  1.35419815434084E-01
 cg2d: Sum(rhs),rhsMax =  -6.81627024584101E-05  1.35421072835630E-01
 cg2d: Sum(rhs),rhsMax =  -6.77132147520031E-05  1.35422338180636E-01
 cg2d: Sum(rhs),rhsMax =  -6.72638615146371E-05  1.35423610657806E-01
 cg2d: Sum(rhs),rhsMax =  -6.68147662158886E-05  1.35424890669984E-01
 cg2d: Sum(rhs),rhsMax =  -6.63658518716432E-05  1.35426178215783E-01
 cg2d: Sum(rhs),rhsMax =  -6.59170775349251E-05  1.35427473293806E-01
 cg2d: Sum(rhs),rhsMax =  -6.54684087637736E-05  1.35428775907130E-01
 cg2d: Sum(rhs),rhsMax =  -6.50198125816959E-05  1.35430086057633E-01
 cg2d: Sum(rhs),rhsMax =  -6.45712574335973E-05  1.35431403746023E-01
 cg2d: Sum(rhs),rhsMax =  -6.41227139190565E-05  1.35432728972367E-01
 cg2d: Sum(rhs),rhsMax =  -6.36741546341160E-05  1.35434061736497E-01
 cg2d: Sum(rhs),rhsMax =  -6.32255526664552E-05  1.35435402038235E-01
 cg2d: Sum(rhs),rhsMax =  -6.27768816748829E-05  1.35436749877449E-01
 cg2d: Sum(rhs),rhsMax =  -6.23281150503906E-05  1.35438105254055E-01
 cg2d: Sum(rhs),rhsMax =  -6.18792265933768E-05  1.35439468168008E-01
 cg2d: Sum(rhs),rhsMax =  -6.14301905491350E-05  1.35440838619313E-01
 cg2d: Sum(rhs),rhsMax =  -6.09809822498210E-05  1.35442216608033E-01
 cg2d: Sum(rhs),rhsMax =  -6.05315779507697E-05  1.35443602134271E-01
 cg2d: Sum(rhs),rhsMax =  -6.00819550524451E-05  1.35444995198144E-01
 cg2d: Sum(rhs),rhsMax =  -5.96320918752526E-05  1.35446395799748E-01
 cg2d: Sum(rhs),rhsMax =  -5.91819676203260E-05  1.35447803939126E-01
 cg2d: Sum(rhs),rhsMax =  -5.87315623113826E-05  1.35449219616263E-01
 cg2d: Sum(rhs),rhsMax =  -5.82808566550732E-05  1.35450642831085E-01
 cg2d: Sum(rhs),rhsMax =  -5.78298320782957E-05  1.35452073583479E-01
 cg2d: Sum(rhs),rhsMax =  -5.73784706195419E-05  1.35453511873307E-01
 cg2d: Sum(rhs),rhsMax =  -5.69267550757924E-05  1.35454957700424E-01
 cg2d: Sum(rhs),rhsMax =  -5.64746689913180E-05  1.35456411064681E-01
 cg2d: Sum(rhs),rhsMax =  -5.60221965268583E-05  1.35457871965926E-01
 cg2d: Sum(rhs),rhsMax =  -5.55693226637292E-05  1.35459340403999E-01
 cg2d: Sum(rhs),rhsMax =  -5.51160328509867E-05  1.35460816378731E-01
 cg2d: Sum(rhs),rhsMax =  -5.46623134788935E-05  1.35462299889927E-01
 cg2d: Sum(rhs),rhsMax =  -5.42081510269158E-05  1.35463790937373E-01
 cg2d: Sum(rhs),rhsMax =  -5.37535330448627E-05  1.35465289520829E-01
 cg2d: Sum(rhs),rhsMax =  -5.32984473900853E-05  1.35466795640033E-01
 cg2d: Sum(rhs),rhsMax =  -5.28428825233504E-05  1.35468309294701E-01
 cg2d: Sum(rhs),rhsMax =  -5.23868271876220E-05  1.35469830484526E-01
 cg2d: Sum(rhs),rhsMax =  -5.19302708166629E-05  1.35471359209189E-01
 cg2d: Sum(rhs),rhsMax =  -5.14732033424061E-05  1.35472895468347E-01
 cg2d: Sum(rhs),rhsMax =  -5.10156150301394E-05  1.35474439261648E-01
 cg2d: Sum(rhs),rhsMax =  -5.05574963485678E-05  1.35475990588719E-01
 cg2d: Sum(rhs),rhsMax =  -5.00988385452820E-05  1.35477549449170E-01
 cg2d: Sum(rhs),rhsMax =  -4.96396329882805E-05  1.35479115842592E-01
 cg2d: Sum(rhs),rhsMax =  -4.91798713340378E-05  1.35480689768558E-01
 cg2d: Sum(rhs),rhsMax =  -4.87195456303031E-05  1.35482271226622E-01
 cg2d: Sum(rhs),rhsMax =  -4.82586483777844E-05  1.35483860216317E-01
 cg2d: Sum(rhs),rhsMax =  -4.77971720448988E-05  1.35485456737159E-01
 cg2d: Sum(rhs),rhsMax =  -4.73351097086639E-05  1.35487060788643E-01
 cg2d: Sum(rhs),rhsMax =  -4.68724543430431E-05  1.35488672370247E-01
 cg2d: Sum(rhs),rhsMax =  -4.64091994863388E-05  1.35490291481429E-01
 cg2d: Sum(rhs),rhsMax =  -4.59453385800177E-05  1.35491918121632E-01
 cg2d: Sum(rhs),rhsMax =  -4.54808654311509E-05  1.35493552290279E-01
 cg2d: Sum(rhs),rhsMax =  -4.50157740123540E-05  1.35495193986771E-01
 cg2d: Sum(rhs),rhsMax =  -4.45500583729080E-05  1.35496843210497E-01
 cg2d: Sum(rhs),rhsMax =  -4.40837129378072E-05  1.35498499960822E-01
 cg2d: Sum(rhs),rhsMax =  -4.36167320400829E-05  1.35500164237096E-01
 cg2d: Sum(rhs),rhsMax =  -4.31491102260194E-05  1.35501836038646E-01
 cg2d: Sum(rhs),rhsMax =  -4.26808422776042E-05  1.35503515364786E-01
 cg2d: Sum(rhs),rhsMax =  -4.22119228886686E-05  1.35505202214807E-01
 cg2d: Sum(rhs),rhsMax =  -4.17423470451348E-05  1.35506896587984E-01
 cg2d: Sum(rhs),rhsMax =  -4.12721097471178E-05  1.35508598483571E-01
 cg2d: Sum(rhs),rhsMax =  -4.08012060393835E-05  1.35510307900806E-01
 cg2d: Sum(rhs),rhsMax =  -4.03296311333144E-05  1.35512024838906E-01
 cg2d: Sum(rhs),rhsMax =  -3.98573803278074E-05  1.35513749297071E-01
 cg2d: Sum(rhs),rhsMax =  -3.93844489318240E-05  1.35515481274482E-01
 cg2d: Sum(rhs),rhsMax =  -3.89108322541368E-05  1.35517220770304E-01
 cg2d: Sum(rhs),rhsMax =  -3.84365259509228E-05  1.35518967783677E-01
 cg2d: Sum(rhs),rhsMax =  -3.79615254951920E-05  1.35520722313730E-01
 cg2d: Sum(rhs),rhsMax =  -3.74858263339000E-05  1.35522484359567E-01
(PID.TID 0000.0001)      cg2d_init_res =   5.27805872907707E-04
(PID.TID 0000.0001)      cg2d_iters(min,last) =      -1      74
(PID.TID 0000.0001)      cg2d_last_res =   9.77536912047656E-08
(PID.TID 0000.0001) // =======================================================
(PID.TID 0000.0001) // Begin MONITOR dynamic field statistics
(PID.TID 0000.0001) // =======================================================
(PID.TID 0000.0001) %MON time_tsnumber                =                 19800
(PID.TID 0000.0001) %MON time_secondsf                =   2.3760000000000E+07
(PID.TID 0000.0001) %MON dynstat_eta_max              =   4.5005390170603E-02
(PID.TID 0000.0001) %MON dynstat_eta_min              =  -2.1481025931800E-02
(PID.TID 0000.0001) %MON dynstat_eta_mean             =   2.5078373102435E-08
(PID.TID 0000.0001) %MON dynstat_eta_sd               =   1.5474337345399E-02
(PID.TID 0000.0001) %MON dynstat_eta_del2             =   1.7530714892029E-05
(PID.TID 0000.0001) %MON dynstat_uvel_max             =   3.0271682268499E-02
(PID.TID 0000.0001) %MON dynstat_uvel_min             =  -1.4942525624188E-02
(PID.TID 0000.0001) %MON dynstat_uvel_mean            =  -1.9558115752254E-08
(PID.TID 0000.0001) %MON dynstat_uvel_sd              =   6.4180660186825E-03
(PID.TID 0000.0001) %MON dynstat_uvel_del2            =   7.6786117640369E-06
(PID.TID 0000.0001) %MON dynstat_vvel_max             =   8.1552599320659E-02
(PID.TID 0000.0001) %MON dynstat_vvel_min             =  -3.1135494470959E-02
(PID.TID 0000.0001) %MON dynstat_vvel_mean            =  -1.6931768928244E-08
(PID.TID 0000.0001) %MON dynstat_vvel_sd              =   1.4258809554960E-02
(PID.TID 0000.0001) %MON dynstat_vvel_del2            =   7.2897604726464E-05
(PID.TID 0000.0001) %MON dynstat_wvel_max             =   8.5980900948925E-09
(PID.TID 0000.0001) %MON dynstat_wvel_min             =  -4.4110382220242E-09
(PID.TID 0000.0001) %MON dynstat_wvel_mean            =   6.5073183779734E-22
(PID.TID 0000.0001) %MON dynstat_wvel_sd              =   3.2924521699588E-09
(PID.TID 0000.0001) %MON dynstat_wvel_del2            =   1.0109919113802E-12
(PID.TID 0000.0001) %MON dynstat_theta_max            =   2.0000000000000E+01
(PID.TID 0000.0001) %MON dynstat_theta_min            =   2.0000000000000E+01
(PID.TID 0000.0001) %MON dynstat_theta_mean           =   2.0000000000000E+01
(PID.TID 0000.0001) %MON dynstat_theta_sd             =   0.0000000000000E+00
(PID.TID 0000.0001) %MON dynstat_theta_del2           =   0.0000000000000E+00
(PID.TID 0000.0001) %MON dynstat_salt_max             =   3.0000000000000E+01
(PID.TID 0000.0001) %MON dynstat_salt_min             =   3.0000000000000E+01
(PID.TID 0000.0001) %MON dynstat_salt_mean            =   3.0000000000000E+01
(PID.TID 0000.0001) %MON dynstat_salt_sd              =   0.0000000000000E+00
(PID.TID 0000.0001) %MON dynstat_salt_del2            =   0.0000000000000E+00
(PID.TID 0000.0001) %MON trAdv_CFL_u_max              =   1.8162909124336E-03
(PID.TID 0000.0001) %MON trAdv_CFL_v_max              =   4.8931143707305E-03
(PID.TID 0000.0001) %MON trAdv_CFL_w_max              =   2.0639568183920E-09
(PID.TID 0000.0001) %MON advcfl_uvel_max              =   1.8163009361099E-03
(PID.TID 0000.0001) %MON advcfl_vvel_max              =   4.8931559592396E-03
(PID.TID 0000.0001) %MON advcfl_wvel_max              =   4.1270832455484E-09
(PID.TID 0000.0001) %MON advcfl_W_hf_max              =   0.0000000000000E+00
(PID.TID 0000.0001) %MON pe_b_mean                    =   2.3490546907053E-07
(PID.TID 0000.0001) %MON ke_max                       =   3.3224214067556E-03
(PID.TID 0000.0001) %MON ke_mean                      =   1.2021506716152E-04
(PID.TID 0000.0001) %MON ke_vol                       =   7.2000000000000E+15
(PID.TID 0000.0001) %MON vort_r_min                   =  -1.4490501558869E-06
(PID.TID 0000.0001) %MON vort_r_max                   =   2.2441594630229E-06
(PID.TID 0000.0001) %MON vort_a_mean                  =   1.0600000000000E-04
(PID.TID 0000.0001) %MON vort_a_sd                    =   3.5358828981846E-06
(PID.TID 0000.0001) %MON vort_p_mean                  =   1.1130000000000E-04
(PID.TID 0000.0001) %MON vort_p_sd                    =   4.1151755319476E-05
(PID.TID 0000.0001) %MON surfExpan_theta_mean         =   1.3009405898225E-20
(PID.TID 0000.0001) %MON surfExpan_salt_mean          =   1.9513950948951E-20
(PID.TID 0000.0001) // =======================================================
(PID.TID 0000.0001) // End MONITOR dynamic field statistics
(PID.TID 0000.0001) // =======================================================
 cg2d: Sum(rhs),rhsMax =  -3.70094243194140E-05  1.35524253920277E-01
 cg2d: Sum(rhs),rhsMax =  -3.65323150092441E-05  1.35526030994932E-01
 cg2d: Sum(rhs),rhsMax =  -3.60544942221951E-05  1.35527815582579E-01
 cg2d: Sum(rhs),rhsMax =  -3.55759577368208E-05  1.35529607682254E-01
 cg2d: Sum(rhs),rhsMax =  -3.50967014954053E-05  1.35531407292969E-01
 cg2d: Sum(rhs),rhsMax =  -3.46167212782172E-05  1.35533214413721E-01
 cg2d: Sum(rhs),rhsMax =  -3.41360130796838E-05  1.35535029043485E-01
 cg2d: Sum(rhs),rhsMax =  -3.36545728932026E-05  1.35536851181220E-01
 cg2d: Sum(rhs),rhsMax =  -3.31723967537884E-05  1.35538680825866E-01
 cg2d: Sum(rhs),rhsMax =  -3.26894807805202E-05  1.35540517976344E-01
 cg2d: Sum(rhs),rhsMax =  -3.22058210224735E-05  1.35542362631556E-01
 cg2d: Sum(rhs),rhsMax =  -3.17214138628912E-05  1.35544214790386E-01
 cg2d: Sum(rhs),rhsMax =  -3.12362554197613E-05  1.35546074451699E-01
 cg2d: Sum(rhs),rhsMax =  -3.07503420664971E-05  1.35547941614344E-01
 cg2d: Sum(rhs),rhsMax =  -3.02636700827107E-05  1.35549816277147E-01
 cg2d: Sum(rhs),rhsMax =  -2.97762358517752E-05  1.35551698438918E-01
 cg2d: Sum(rhs),rhsMax =  -2.92880358704643E-05  1.35553588098448E-01
 cg2d: Sum(rhs),rhsMax =  -2.87990666505171E-05  1.35555485254510E-01
 cg2d: Sum(rhs),rhsMax =  -2.83093248117615E-05  1.35557389905857E-01
 cg2d: Sum(rhs),rhsMax =  -2.78188069529530E-05  1.35559302051226E-01
 cg2d: Sum(rhs),rhsMax =  -2.73275098874566E-05  1.35561221689333E-01
 cg2d: Sum(rhs),rhsMax =  -2.68354302373746E-05  1.35563148818876E-01
 cg2d: Sum(rhs),rhsMax =  -2.63425649155592E-05  1.35565083438535E-01
 cg2d: Sum(rhs),rhsMax =  -2.58489108630796E-05  1.35567025546970E-01
 cg2d: Sum(rhs),rhsMax =  -2.53544650458204E-05  1.35568975142826E-01
 cg2d: Sum(rhs),rhsMax =  -2.48592244225781E-05  1.35570932224725E-01
 cg2d: Sum(rhs),rhsMax =  -2.43631862425139E-05  1.35572896791272E-01
 cg2d: Sum(rhs),rhsMax =  -2.38663477154710E-05  1.35574868841057E-01
 cg2d: Sum(rhs),rhsMax =  -2.33687061704227E-05  1.35576848372644E-01
 cg2d: Sum(rhs),rhsMax =  -2.28702588263435E-05  1.35578835384586E-01
 cg2d: Sum(rhs),rhsMax =  -2.23710033390888E-05  1.35580829875412E-01
 cg2d: Sum(rhs),rhsMax =  -2.18709370889006E-05  1.35582831843637E-01
 cg2d: Sum(rhs),rhsMax =  -2.13700577764153E-05  1.35584841287754E-01
 cg2d: Sum(rhs),rhsMax =  -2.08683631962208E-05  1.35586858206237E-01
 cg2d: Sum(rhs),rhsMax =  -2.03658510872454E-05  1.35588882597545E-01
 cg2d: Sum(rhs),rhsMax =  -1.98625194378745E-05  1.35590914460115E-01
 cg2d: Sum(rhs),rhsMax =  -1.93583661552213E-05  1.35592953792369E-01
 cg2d: Sum(rhs),rhsMax =  -1.88533894649786E-05  1.35595000592707E-01
 cg2d: Sum(rhs),rhsMax =  -1.83475874973079E-05  1.35597054859511E-01
 cg2d: Sum(rhs),rhsMax =  -1.78409586349846E-05  1.35599116591147E-01
 cg2d: Sum(rhs),rhsMax =  -1.73335012006179E-05  1.35601185785959E-01
 cg2d: Sum(rhs),rhsMax =  -1.68252138015093E-05  1.35603262442275E-01
 cg2d: Sum(rhs),rhsMax =  -1.63160950524483E-05  1.35605346558404E-01
 cg2d: Sum(rhs),rhsMax =  -1.58061437003955E-05  1.35607438132636E-01
 cg2d: Sum(rhs),rhsMax =  -1.52953584757285E-05  1.35609537163242E-01
 cg2d: Sum(rhs),rhsMax =  -1.47837385141300E-05  1.35611643648475E-01
 cg2d: Sum(rhs),rhsMax =  -1.42712827199574E-05  1.35613757586571E-01
 cg2d: Sum(rhs),rhsMax =  -1.37579903417831E-05  1.35615878975744E-01
 cg2d: Sum(rhs),rhsMax =  -1.32438607488728E-05  1.35618007814193E-01
 cg2d: Sum(rhs),rhsMax =  -1.27288932248639E-05  1.35620144100096E-01
 cg2d: Sum(rhs),rhsMax =  -1.22130872746750E-05  1.35622287831615E-01
 cg2d: Sum(rhs),rhsMax =  -1.16964426376560E-05  1.35624439006891E-01
 cg2d: Sum(rhs),rhsMax =  -1.11789591144273E-05  1.35626597624046E-01
 cg2d: Sum(rhs),rhsMax =  -1.06606363924813E-05  1.35628763681187E-01
 cg2d: Sum(rhs),rhsMax =  -1.01414746038571E-05  1.35630937176399E-01
 cg2d: Sum(rhs),rhsMax =  -9.62147386851606E-06  1.35633118107751E-01
 cg2d: Sum(rhs),rhsMax =  -9.10063429709895E-06  1.35635306473292E-01
 cg2d: Sum(rhs),rhsMax =  -8.57895638978982E-06  1.35637502271052E-01
 cg2d: Sum(rhs),rhsMax =  -8.05644044326714E-06  1.35639705499045E-01
 cg2d: Sum(rhs),rhsMax =  -7.53308719460971E-06  1.35641916155264E-01
 cg2d: Sum(rhs),rhsMax =  -7.00889722776016E-06  1.35644134237685E-01
 cg2d: Sum(rhs),rhsMax =  -6.48387143260126E-06  1.35646359744265E-01
 cg2d: Sum(rhs),rhsMax =  -5.95801073388982E-06  1.35648592672940E-01
 cg2d: Sum(rhs),rhsMax =  -5.43131620759155E-06  1.35650833021634E-01
 cg2d: Sum(rhs),rhsMax =  -4.90378914138386E-06  1.35653080788244E-01
 cg2d: Sum(rhs),rhsMax =  -4.37543060740741E-06  1.35655335970657E-01
 cg2d: Sum(rhs),rhsMax =  -3.84624223885056E-06  1.35657598566737E-01
 cg2d: Sum(rhs),rhsMax =  -3.31622547422149E-06  1.35659868574328E-01
 cg2d: Sum(rhs),rhsMax =  -2.78538204193015E-06  1.35662145991259E-01
 cg2d: Sum(rhs),rhsMax =  -2.25371363551594E-06  1.35664430815340E-01
 cg2d: Sum(rhs),rhsMax =  -1.72122225877442E-06  1.35666723044360E-01
 cg2d: Sum(rhs),rhsMax =  -1.18790984097832E-06  1.35669022676092E-01
(PID.TID 0000.0001)      cg2d_init_res =   5.29255769551688E-04
(PID.TID 0000.0001)      cg2d_iters(min,last) =      -1      74
(PID.TID 0000.0001)      cg2d_last_res =   9.28513470529808E-08
(PID.TID 0000.0001) // =======================================================
(PID.TID 0000.0001) // Begin MONITOR dynamic field statistics
(PID.TID 0000.0001) // =======================================================
(PID.TID 0000.0001) %MON time_tsnumber                =                 19872
(PID.TID 0000.0001) %MON time_secondsf                =   2.3846400000000E+07
(PID.TID 0000.0001) %MON dynstat_eta_max              =   4.4850134988339E-02
(PID.TID 0000.0001) %MON dynstat_eta_min              =  -2.1715266937441E-02
(PID.TID 0000.0001) %MON dynstat_eta_mean             =   4.4349505089760E-10
(PID.TID 0000.0001) %MON dynstat_eta_sd               =   1.5597316666686E-02
(PID.TID 0000.0001) %MON dynstat_eta_del2             =   1.7517980370653E-05
(PID.TID 0000.0001) %MON dynstat_uvel_max             =   3.0287850128027E-02
(PID.TID 0000.0001) %MON dynstat_uvel_min             =  -1.4952608632893E-02
(PID.TID 0000.0001) %MON dynstat_uvel_mean            =  -3.5727434949658E-08
(PID.TID 0000.0001) %MON dynstat_uvel_sd              =   6.4770024982245E-03
(PID.TID 0000.0001) %MON dynstat_uvel_del2            =   7.7153706760905E-06
(PID.TID 0000.0001) %MON dynstat_vvel_max             =   8.1614053945414E-02
(PID.TID 0000.0001) %MON dynstat_vvel_min             =  -3.1003188128248E-02
(PID.TID 0000.0001) %MON dynstat_vvel_mean            =  -1.7358076883599E-08
(PID.TID 0000.0001) %MON dynstat_vvel_sd              =   1.4260856884108E-02
(PID.TID 0000.0001) %MON dynstat_vvel_del2            =   7.2861921408449E-05
(PID.TID 0000.0001) %MON dynstat_wvel_max             =   8.4490771069977E-09
(PID.TID 0000.0001) %MON dynstat_wvel_min             =  -4.6652802481549E-09
(PID.TID 0000.0001) %MON dynstat_wvel_mean            =  -9.3990315185187E-22
(PID.TID 0000.0001) %MON dynstat_wvel_sd              =   3.2883016547595E-09
(PID.TID 0000.0001) %MON dynstat_wvel_del2            =   1.0025285541400E-12
(PID.TID 0000.0001) %MON dynstat_theta_max            =   2.0000000000000E+01
(PID.TID 0000.0001) %MON dynstat_theta_min            =   2.0000000000000E+01
(PID.TID 0000.0001) %MON dynstat_theta_mean           =   2.0000000000000E+01
(PID.TID 0000.0001) %MON dynstat_theta_sd             =   0.0000000000000E+00
(PID.TID 0000.0001) %MON dynstat_theta_del2           =   0.0000000000000E+00
(PID.TID 0000.0001) %MON dynstat_salt_max             =   3.0000000000000E+01
(PID.TID 0000.0001) %MON dynstat_salt_min             =   3.0000000000000E+01
(PID.TID 0000.0001) %MON dynstat_salt_mean            =   3.0000000000000E+01
(PID.TID 0000.0001) %MON dynstat_salt_sd              =   0.0000000000000E+00
(PID.TID 0000.0001) %MON dynstat_salt_del2            =   0.0000000000000E+00
(PID.TID 0000.0001) %MON trAdv_CFL_u_max              =   1.8172541717730E-03
(PID.TID 0000.0001) %MON trAdv_CFL_v_max              =   4.8967826650935E-03
(PID.TID 0000.0001) %MON trAdv_CFL_w_max              =   2.0282718876202E-09
(PID.TID 0000.0001) %MON advcfl_uvel_max              =   1.8172710076816E-03
(PID.TID 0000.0001) %MON advcfl_vvel_max              =   4.8968432367249E-03
(PID.TID 0000.0001) %MON advcfl_wvel_max              =   4.0555570113589E-09
(PID.TID 0000.0001) %MON advcfl_W_hf_max              =   0.0000000000000E+00
(PID.TID 0000.0001) %MON pe_b_mean                    =   2.3865403774408E-07
(PID.TID 0000.0001) %MON ke_max                       =   3.3273071896287E-03
(PID.TID 0000.0001) %MON ke_mean                      =   1.2061743687936E-04
(PID.TID 0000.0001) %MON ke_vol                       =   7.2000000000000E+15
(PID.TID 0000.0001) %MON vort_r_min                   =  -1.4486641537353E-06
(PID.TID 0000.0001) %MON vort_r_max                   =   2.2473395985061E-06
(PID.TID 0000.0001) %MON vort_a_mean                  =   1.0600000000000E-04
(PID.TID 0000.0001) %MON vort_a_sd                    =   3.5358813730462E-06
(PID.TID 0000.0001) %MON vort_p_mean                  =   1.1130000000000E-04
(PID.TID 0000.0001) %MON vort_p_sd                    =   4.1151841065776E-05
(PID.TID 0000.0001) %MON surfExpan_theta_mean         =  -1.8801908178527E-20
(PID.TID 0000.0001) %MON surfExpan_salt_mean          =  -2.8204283353261E-20
(PID.TID 0000.0001) // =======================================================
(PID.TID 0000.0001) // End MONITOR dynamic field statistics
(PID.TID 0000.0001) // =======================================================
 cg2d: Sum(rhs),rhsMax =  -6.53778584745919E-07  1.35671329708289E-01
 cg2d: Sum(rhs),rhsMax =  -1.18830631131925E-07  1.35673644138688E-01
 cg2d: Sum(rhs),rhsMax =   4.16931619577968E-07  1.35675965965005E-01
 cg2d: Sum(rhs),rhsMax =   9.53505623862809E-07  1.35678295184938E-01
 cg2d: Sum(rhs),rhsMax =   1.49088887344689E-06  1.35680631796168E-01
 cg2d: Sum(rhs),rhsMax =   2.02907867450676E-06  1.35682975796357E-01
 cg2d: Sum(rhs),rhsMax =   2.56807207590914E-06  1.35685327183146E-01
 cg2d: Sum(rhs),rhsMax =   3.10786629752549E-06  1.35687685954162E-01
 cg2d: Sum(rhs),rhsMax =   3.64845833827985E-06  1.35690052107012E-01
 cg2d: Sum(rhs),rhsMax =   4.18984491272045E-06  1.35692425639280E-01
 cg2d: Sum(rhs),rhsMax =   4.73202288688891E-06  1.35694806548540E-01
 cg2d: Sum(rhs),rhsMax =   5.27498890156349E-06  1.35697194832341E-01
 cg2d: Sum(rhs),rhsMax =   5.81873949345550E-06  1.35699590488215E-01
 cg2d: Sum(rhs),rhsMax =   6.36327104437933E-06  1.35701993513678E-01
 cg2d: Sum(rhs),rhsMax =   6.90857989577801E-06  1.35704403906225E-01
 cg2d: Sum(rhs),rhsMax =   7.45466232445445E-06  1.35706821663334E-01
 cg2d: Sum(rhs),rhsMax =   8.00151453340080E-06  1.35709246782464E-01
 cg2d: Sum(rhs),rhsMax =   8.54913252921682E-06  1.35711679261056E-01
 cg2d: Sum(rhs),rhsMax =   9.09751219803356E-06  1.35714119096532E-01
 cg2d: Sum(rhs),rhsMax =   9.64664938139445E-06  1.35716566286296E-01
 cg2d: Sum(rhs),rhsMax =   1.01965399392405E-05  1.35719020827734E-01
 cg2d: Sum(rhs),rhsMax =   1.07471793825455E-05  1.35721482718214E-01
 cg2d: Sum(rhs),rhsMax =   1.12985632970278E-05  1.35723951955083E-01
 cg2d: Sum(rhs),rhsMax =   1.18506873092051E-05  1.35726428535674E-01
 cg2d: Sum(rhs),rhsMax =   1.24035467419618E-05  1.35728912457298E-01
 cg2d: Sum(rhs),rhsMax =   1.29571367546676E-05  1.35731403717249E-01
 cg2d: Sum(rhs),rhsMax =   1.35114527247283E-05  1.35733902312803E-01
 cg2d: Sum(rhs),rhsMax =   1.40664897093782E-05  1.35736408241216E-01
 cg2d: Sum(rhs),rhsMax =   1.46222427658497E-05  1.35738921499729E-01
 cg2d: Sum(rhs),rhsMax =   1.51787069254542E-05  1.35741442085561E-01
 cg2d: Sum(rhs),rhsMax =   1.57358770438510E-05  1.35743969995915E-01
 cg2d: Sum(rhs),rhsMax =   1.62937478731468E-05  1.35746505227975E-01
 cg2d: Sum(rhs),rhsMax =   1.68523142460887E-05  1.35749047778907E-01
 cg2d: Sum(rhs),rhsMax =   1.74115707948976E-05  1.35751597645858E-01
 cg2d: Sum(rhs),rhsMax =   1.79715120207820E-05  1.35754154825957E-01
 cg2d: Sum(rhs),rhsMax =   1.85321325941517E-05  1.35756719316314E-01
 cg2d: Sum(rhs),rhsMax =   1.90934268384842E-05  1.35759291114024E-01
 cg2d: Sum(rhs),rhsMax =   1.96553893039896E-05  1.35761870216158E-01
 cg2d: Sum(rhs),rhsMax =   2.02180141423199E-05  1.35764456619775E-01
 cg2d: Sum(rhs),rhsMax =   2.07812956728630E-05  1.35767050321910E-01
 cg2d: Sum(rhs),rhsMax =   2.13452280684477E-05  1.35769651319585E-01
 cg2d: Sum(rhs),rhsMax =   2.19098054535256E-05  1.35772259609800E-01
 cg2d: Sum(rhs),rhsMax =   2.24750219018147E-05  1.35774875189538E-01
 cg2d: Sum(rhs),rhsMax =   2.30408713902215E-05  1.35777498055764E-01
 cg2d: Sum(rhs),rhsMax =   2.36073479016842E-05  1.35780128205424E-01
 cg2d: Sum(rhs),rhsMax =   2.41744453020132E-05  1.35782765635446E-01
 cg2d: Sum(rhs),rhsMax =   2.47421574511748E-05  1.35785410342742E-01
 cg2d: Sum(rhs),rhsMax =   2.53104781692366E-05  1.35788062324201E-01
 cg2d: Sum(rhs),rhsMax =   2.58794012381238E-05  1.35790721576698E-01
 cg2d: Sum(rhs),rhsMax =   2.64489202040181E-05  1.35793388097089E-01
 cg2d: Sum(rhs),rhsMax =   2.70190287893161E-05  1.35796061882210E-01
 cg2d: Sum(rhs),rhsMax =   2.75897206674786E-05  1.35798742928880E-01
 cg2d: Sum(rhs),rhsMax =   2.81609892855321E-05  1.35801431233901E-01
 cg2d: Sum(rhs),rhsMax =   2.87328282159074E-05  1.35804126794054E-01
 cg2d: Sum(rhs),rhsMax =   2.93052308282379E-05  1.35806829606105E-01
 cg2d: Sum(rhs),rhsMax =   2.98781906574817E-05  1.35809539666800E-01
 cg2d: Sum(rhs),rhsMax =   3.04517011511162E-05  1.35812256972866E-01
 cg2d: Sum(rhs),rhsMax =   3.10257554779906E-05  1.35814981521013E-01
 cg2d: Sum(rhs),rhsMax =   3.16003470364782E-05  1.35817713307935E-01
 cg2d: Sum(rhs),rhsMax =   3.21754692652219E-05  1.35820452330303E-01
 cg2d: Sum(rhs),rhsMax =   3.27511152481228E-05  1.35823198584773E-01
 cg2d: Sum(rhs),rhsMax =   3.33272782663332E-05  1.35825952067985E-01
 cg2d: Sum(rhs),rhsMax =   3.39039514539573E-05  1.35828712776554E-01
 cg2d: Sum(rhs),rhsMax =   3.44811280608356E-05  1.35831480707085E-01
 cg2d: Sum(rhs),rhsMax =   3.50588012082136E-05  1.35834255856158E-01
 cg2d: Sum(rhs),rhsMax =   3.56369640142828E-05  1.35837038220341E-01
 cg2d: Sum(rhs),rhsMax =   3.62156095091021E-05  1.35839827796179E-01
 cg2d: Sum(rhs),rhsMax =   3.67947308100094E-05  1.35842624580199E-01
 cg2d: Sum(rhs),rhsMax =   3.73743209427504E-05  1.35845428568915E-01
 cg2d: Sum(rhs),rhsMax =   3.79543730027578E-05  1.35848239758818E-01
 cg2d: Sum(rhs),rhsMax =   3.85348799031284E-05  1.35851058146383E-01
 cg2d: Sum(rhs),rhsMax =   3.91158347638121E-05  1.35853883728066E-01
(PID.TID 0000.0001)      cg2d_init_res =   5.30722803242144E-04
(PID.TID 0000.0001)      cg2d_iters(min,last) =      -1      74
(PID.TID 0000.0001)      cg2d_last_res =   8.90974146529736E-08
(PID.TID 0000.0001) // =======================================================
(PID.TID 0000.0001) // Begin MONITOR dynamic field statistics
(PID.TID 0000.0001) // =======================================================
(PID.TID 0000.0001) %MON time_tsnumber                =                 19944
(PID.TID 0000.0001) %MON time_secondsf                =   2.3932800000000E+07
(PID.TID 0000.0001) %MON dynstat_eta_max              =   4.4725227764156E-02
(PID.TID 0000.0001) %MON dynstat_eta_min              =  -2.1943479312003E-02
(PID.TID 0000.0001) %MON dynstat_eta_mean             =  -2.6965676900122E-08
(PID.TID 0000.0001) %MON dynstat_eta_sd               =   1.5736161627704E-02
(PID.TID 0000.0001) %MON dynstat_eta_del2             =   1.7506631175438E-05
(PID.TID 0000.0001) %MON dynstat_uvel_max             =   3.0312204314899E-02
(PID.TID 0000.0001) %MON dynstat_uvel_min             =  -1.4970034681769E-02
(PID.TID 0000.0001) %MON dynstat_uvel_mean            =  -5.1443033294377E-08
(PID.TID 0000.0001) %MON dynstat_uvel_sd              =   6.5373840410162E-03
(PID.TID 0000.0001) %MON dynstat_uvel_del2            =   7.7540164414311E-06
(PID.TID 0000.0001) %MON dynstat_vvel_max             =   8.1698235397328E-02
(PID.TID 0000.0001) %MON dynstat_vvel_min             =  -3.0864060754231E-02
(PID.TID 0000.0001) %MON dynstat_vvel_mean            =  -1.7652138837712E-08
(PID.TID 0000.0001) %MON dynstat_vvel_sd              =   1.4266894561341E-02
(PID.TID 0000.0001) %MON dynstat_vvel_del2            =   7.2839121739841E-05
(PID.TID 0000.0001) %MON dynstat_wvel_max             =   8.2807501228672E-09
(PID.TID 0000.0001) %MON dynstat_wvel_min             =  -4.9508946595597E-09
(PID.TID 0000.0001) %MON dynstat_wvel_mean            =   2.3380771886473E-21
(PID.TID 0000.0001) %MON dynstat_wvel_sd              =   3.2848104341538E-09
(PID.TID 0000.0001) %MON dynstat_wvel_del2            =   9.9488174011477E-13
(PID.TID 0000.0001) %MON dynstat_theta_max            =   2.0000000000000E+01
(PID.TID 0000.0001) %MON dynstat_theta_min            =   2.0000000000000E+01
(PID.TID 0000.0001) %MON dynstat_theta_mean           =   2.0000000000000E+01
(PID.TID 0000.0001) %MON dynstat_theta_sd             =   0.0000000000000E+00
(PID.TID 0000.0001) %MON dynstat_theta_del2           =   0.0000000000000E+00
(PID.TID 0000.0001) %MON dynstat_salt_max             =   3.0000000000000E+01
(PID.TID 0000.0001) %MON dynstat_salt_min             =   3.0000000000000E+01
(PID.TID 0000.0001) %MON dynstat_salt_mean            =   3.0000000000000E+01
(PID.TID 0000.0001) %MON dynstat_salt_sd              =   0.0000000000000E+00
(PID.TID 0000.0001) %MON dynstat_salt_del2            =   0.0000000000000E+00
(PID.TID 0000.0001) %MON trAdv_CFL_u_max              =   1.8187086050779E-03
(PID.TID 0000.0001) %MON trAdv_CFL_v_max              =   4.9018146969761E-03
(PID.TID 0000.0001) %MON trAdv_CFL_w_max              =   1.9878989507211E-09
(PID.TID 0000.0001) %MON advcfl_uvel_max              =   1.8187322588940E-03
(PID.TID 0000.0001) %MON advcfl_vvel_max              =   4.9018941238397E-03
(PID.TID 0000.0001) %MON advcfl_wvel_max              =   3.9747600589762E-09
(PID.TID 0000.0001) %MON advcfl_W_hf_max              =   0.0000000000000E+00
(PID.TID 0000.0001) %MON pe_b_mean                    =   2.4292187390124E-07
(PID.TID 0000.0001) %MON ke_max                       =   3.3340406255375E-03
(PID.TID 0000.0001) %MON ke_mean                      =   1.2108848800917E-04
(PID.TID 0000.0001) %MON ke_vol                       =   7.2000000000000E+15
(PID.TID 0000.0001) %MON vort_r_min                   =  -1.4483777493574E-06
(PID.TID 0000.0001) %MON vort_r_max                   =   2.2511771056764E-06
(PID.TID 0000.0001) %MON vort_a_mean                  =   1.0600000000000E-04
(PID.TID 0000.0001) %MON vort_a_sd                    =   3.5358864681284E-06
(PID.TID 0000.0001) %MON vort_p_mean                  =   1.1130000000000E-04
(PID.TID 0000.0001) %MON vort_p_sd                    =   4.1151923322416E-05
(PID.TID 0000.0001) %MON surfExpan_theta_mean         =   4.6765870188715E-20
(PID.TID 0000.0001) %MON surfExpan_salt_mean          =   7.0148805283073E-20
(PID.TID 0000.0001) // =======================================================
(PID.TID 0000.0001) // End MONITOR dynamic field statistics
(PID.TID 0000.0001) // =======================================================
 cg2d: Sum(rhs),rhsMax =   3.96972304274922E-05  1.35856716500305E-01
 cg2d: Sum(rhs),rhsMax =   4.02790598745253E-05  1.35859556459522E-01
 cg2d: Sum(rhs),rhsMax =   4.09537499403778E-05  1.35862403632800E-01
 cg2d: Sum(rhs),rhsMax =   4.16288066691275E-05  1.35865257957107E-01
 cg2d: Sum(rhs),rhsMax =   4.23042434864081E-05  1.35868119458006E-01
 cg2d: Sum(rhs),rhsMax =   4.29800121038576E-05  1.35870988132833E-01
 cg2d: Sum(rhs),rhsMax =   4.36560987381266E-05  1.35873863974857E-01
 cg2d: Sum(rhs),rhsMax =   4.43324948684303E-05  1.35876746982869E-01
 cg2d: Sum(rhs),rhsMax =   4.50091997377501E-05  1.35879637152888E-01
 cg2d: Sum(rhs),rhsMax =   4.56862127985892E-05  1.35882534481068E-01
 cg2d: Sum(rhs),rhsMax =   4.63635308339911E-05  1.35885438963145E-01
 cg2d: Sum(rhs),rhsMax =   4.70411475608380E-05  1.35888350595236E-01
 cg2d: Sum(rhs),rhsMax =   4.77190547730003E-05  1.35891269373586E-01
 cg2d: Sum(rhs),rhsMax =   4.83972442885498E-05  1.35894195294545E-01
 cg2d: Sum(rhs),rhsMax =   4.90757085736494E-05  1.35897128354402E-01
 cg2d: Sum(rhs),rhsMax =   4.97544409162097E-05  1.35900068549356E-01
 cg2d: Sum(rhs),rhsMax =   5.04334349760351E-05  1.35903015875517E-01
 cg2d: Sum(rhs),rhsMax =   5.11126846108453E-05  1.35905970328951E-01
 cg2d: Sum(rhs),rhsMax =   5.17921833029433E-05  1.35908931905718E-01
 cg2d: Sum(rhs),rhsMax =   5.24719245199980E-05  1.35911900601891E-01
 cg2d: Sum(rhs),rhsMax =   5.31519014742273E-05  1.35914876413559E-01
 cg2d: Sum(rhs),rhsMax =   5.38321074223707E-05  1.35917859336806E-01
 cg2d: Sum(rhs),rhsMax =   5.45125356345216E-05  1.35920849367705E-01
 cg2d: Sum(rhs),rhsMax =   5.51931794600174E-05  1.35923846502300E-01
 cg2d: Sum(rhs),rhsMax =   5.58740321082328E-05  1.35926850736602E-01
 cg2d: Sum(rhs),rhsMax =   5.65550870845286E-05  1.35929862066602E-01
 cg2d: Sum(rhs),rhsMax =   5.72363378197232E-05  1.35932880488261E-01
 cg2d: Sum(rhs),rhsMax =   5.79177775743784E-05  1.35935905997522E-01
 cg2d: Sum(rhs),rhsMax =   5.85993996804193E-05  1.35938938590317E-01
 cg2d: Sum(rhs),rhsMax =   5.92811974681950E-05  1.35941978262558E-01
 cg2d: Sum(rhs),rhsMax =   5.99631643806286E-05  1.35945025010146E-01
 cg2d: Sum(rhs),rhsMax =   6.06452937108974E-05  1.35948078828966E-01
 cg2d: Sum(rhs),rhsMax =   6.13275789586613E-05  1.35951139714885E-01
 cg2d: Sum(rhs),rhsMax =   6.20100134093747E-05  1.35954207663753E-01
 cg2d: Sum(rhs),rhsMax =   6.26925904728508E-05  1.35957282671401E-01
 cg2d: Sum(rhs),rhsMax =   6.33753036010732E-05  1.35960364733641E-01
 cg2d: Sum(rhs),rhsMax =   6.40581461666817E-05  1.35963453846267E-01
 cg2d: Sum(rhs),rhsMax =   6.47411116573579E-05  1.35966550005053E-01
 cg2d: Sum(rhs),rhsMax =   6.54241934597410E-05  1.35969653205758E-01
 cg2d: Sum(rhs),rhsMax =   6.61073850412117E-05  1.35972763444119E-01
 cg2d: Sum(rhs),rhsMax =   6.67906799855476E-05  1.35975880715858E-01
 cg2d: Sum(rhs),rhsMax =   6.74740714814515E-05  1.35979005016681E-01
 cg2d: Sum(rhs),rhsMax =   6.81575532699942E-05  1.35982136342276E-01
 cg2d: Sum(rhs),rhsMax =   6.88411188734528E-05  1.35985274688311E-01
 cg2d: Sum(rhs),rhsMax =   6.95247616265895E-05  1.35988420050439E-01
 cg2d: Sum(rhs),rhsMax =   7.02084752679201E-05  1.35991572424295E-01
 cg2d: Sum(rhs),rhsMax =   7.08922532072056E-05  1.35994731805495E-01
 cg2d: Sum(rhs),rhsMax =   7.15760890947856E-05  1.35997898189637E-01
 cg2d: Sum(rhs),rhsMax =   7.22599764794831E-05  1.36001071572303E-01
 cg2d: Sum(rhs),rhsMax =   7.29439089435756E-05  1.36004251949055E-01
 cg2d: Sum(rhs),rhsMax =   7.36278802748562E-05  1.36007439315441E-01
 cg2d: Sum(rhs),rhsMax =   7.43118839338173E-05  1.36010633666987E-01
 cg2d: Sum(rhs),rhsMax =   7.49959137099640E-05  1.36013834999204E-01
 cg2d: Sum(rhs),rhsMax =   7.56799632100156E-05  1.36017043307584E-01
 cg2d: Sum(rhs),rhsMax =   7.63640262920612E-05  1.36020258587604E-01
 cg2d: Sum(rhs),rhsMax =   7.70480964006727E-05  1.36023480834722E-01
 cg2d: Sum(rhs),rhsMax =   7.77321675929721E-05  1.36026710044376E-01
 cg2d: Sum(rhs),rhsMax =   7.84162334775632E-05  1.36029946211991E-01
 cg2d: Sum(rhs),rhsMax =   7.91002878412156E-05  1.36033189332970E-01
 cg2d: Sum(rhs),rhsMax =   7.97843245076615E-05  1.36036439402702E-01
 cg2d: Sum(rhs),rhsMax =   8.04683373020216E-05  1.36039696416556E-01
 cg2d: Sum(rhs),rhsMax =   8.11523201546998E-05  1.36042960369884E-01
 cg2d: Sum(rhs),rhsMax =   8.18362668453783E-05  1.36046231258021E-01
 cg2d: Sum(rhs),rhsMax =   8.25201713382639E-05  1.36049509076286E-01
 cg2d: Sum(rhs),rhsMax =   8.32040276073894E-05  1.36052793819978E-01
 cg2d: Sum(rhs),rhsMax =   8.38878295337216E-05  1.36056085484377E-01
 cg2d: Sum(rhs),rhsMax =   8.45715710814272E-05  1.36059384064750E-01
 cg2d: Sum(rhs),rhsMax =   8.52552462577488E-05  1.36062689556345E-01
 cg2d: Sum(rhs),rhsMax =   8.59388491537506E-05  1.36066001954390E-01
 cg2d: Sum(rhs),rhsMax =   8.66223737846427E-05  1.36069321254099E-01
 cg2d: Sum(rhs),rhsMax =   8.73058142430161E-05  1.36072647450665E-01
 cg2d: Sum(rhs),rhsMax =   8.79891646029122E-05  1.36075980539268E-01
(PID.TID 0000.0001)      cg2d_init_res =   5.32075167877191E-04
(PID.TID 0000.0001)      cg2d_iters(min,last) =      -1      73
(PID.TID 0000.0001)      cg2d_last_res =   9.67151136789917E-08
(PID.TID 0000.0001) // =======================================================
(PID.TID 0000.0001) // Begin MONITOR dynamic field statistics
(PID.TID 0000.0001) // =======================================================
(PID.TID 0000.0001) %MON time_tsnumber                =                 20016
(PID.TID 0000.0001) %MON time_secondsf                =   2.4019200000000E+07
(PID.TID 0000.0001) %MON dynstat_eta_max              =   4.4632806564625E-02
(PID.TID 0000.0001) %MON dynstat_eta_min              =  -2.2162891402240E-02
(PID.TID 0000.0001) %MON dynstat_eta_mean             =  -6.0332412630023E-08
(PID.TID 0000.0001) %MON dynstat_eta_sd               =   1.5888773604121E-02
(PID.TID 0000.0001) %MON dynstat_eta_del2             =   1.7496835759656E-05
(PID.TID 0000.0001) %MON dynstat_uvel_max             =   3.0344701655927E-02
(PID.TID 0000.0001) %MON dynstat_uvel_min             =  -1.4994624998159E-02
(PID.TID 0000.0001) %MON dynstat_uvel_mean            =  -6.6504130366110E-08
(PID.TID 0000.0001) %MON dynstat_uvel_sd              =   6.5983994049594E-03
(PID.TID 0000.0001) %MON dynstat_uvel_del2            =   7.7939396927735E-06
(PID.TID 0000.0001) %MON dynstat_vvel_max             =   8.1804839024388E-02
(PID.TID 0000.0001) %MON dynstat_vvel_min             =  -3.0719566961681E-02
(PID.TID 0000.0001) %MON dynstat_vvel_mean            =  -1.7815810857012E-08
(PID.TID 0000.0001) %MON dynstat_vvel_sd              =   1.4276919256082E-02
(PID.TID 0000.0001) %MON dynstat_vvel_del2            =   7.2829726732935E-05
(PID.TID 0000.0001) %MON dynstat_wvel_max             =   8.0946540230798E-09
(PID.TID 0000.0001) %MON dynstat_wvel_min             =  -5.1902215558221E-09
(PID.TID 0000.0001) %MON dynstat_wvel_mean            =  -1.1223413467734E-21
(PID.TID 0000.0001) %MON dynstat_wvel_sd              =   3.2816881810968E-09
(PID.TID 0000.0001) %MON dynstat_wvel_del2            =   9.8549773288741E-13
(PID.TID 0000.0001) %MON dynstat_theta_max            =   2.0000000000000E+01
(PID.TID 0000.0001) %MON dynstat_theta_min            =   2.0000000000000E+01
(PID.TID 0000.0001) %MON dynstat_theta_mean           =   2.0000000000000E+01
(PID.TID 0000.0001) %MON dynstat_theta_sd             =   0.0000000000000E+00
(PID.TID 0000.0001) %MON dynstat_theta_del2           =   0.0000000000000E+00
(PID.TID 0000.0001) %MON dynstat_salt_max             =   3.0000000000000E+01
(PID.TID 0000.0001) %MON dynstat_salt_min             =   3.0000000000000E+01
(PID.TID 0000.0001) %MON dynstat_salt_mean            =   3.0000000000000E+01
(PID.TID 0000.0001) %MON dynstat_salt_sd              =   0.0000000000000E+00
(PID.TID 0000.0001) %MON dynstat_salt_del2            =   0.0000000000000E+00
(PID.TID 0000.0001) %MON trAdv_CFL_u_max              =   1.8206517041631E-03
(PID.TID 0000.0001) %MON trAdv_CFL_v_max              =   4.9081924355539E-03
(PID.TID 0000.0001) %MON trAdv_CFL_w_max              =   1.9432624437672E-09
(PID.TID 0000.0001) %MON advcfl_uvel_max              =   1.8206820993556E-03
(PID.TID 0000.0001) %MON advcfl_vvel_max              =   4.9082903414633E-03
(PID.TID 0000.0001) %MON advcfl_wvel_max              =   3.8854339310783E-09
(PID.TID 0000.0001) %MON advcfl_W_hf_max              =   0.0000000000000E+00
(PID.TID 0000.0001) %MON pe_b_mean                    =   2.4765651724037E-07
(PID.TID 0000.0001) %MON ke_max                       =   3.3426025932363E-03
(PID.TID 0000.0001) %MON ke_mean                      =   1.2162323826043E-04
(PID.TID 0000.0001) %MON ke_vol                       =   7.2000000000000E+15
(PID.TID 0000.0001) %MON vort_r_min                   =  -1.4482054377877E-06
(PID.TID 0000.0001) %MON vort_r_max                   =   2.2556432668968E-06
(PID.TID 0000.0001) %MON vort_a_mean                  =   1.0600000000000E-04
(PID.TID 0000.0001) %MON vort_a_sd                    =   3.5358982364624E-06
(PID.TID 0000.0001) %MON vort_p_mean                  =   1.1130000000000E-04
(PID.TID 0000.0001) %MON vort_p_sd                    =   4.1152001246272E-05
(PID.TID 0000.0001) %MON surfExpan_theta_mean         =  -2.2456782112891E-20
(PID.TID 0000.0001) %MON surfExpan_salt_mean          =  -3.3682567845972E-20
(PID.TID 0000.0001) // =======================================================
(PID.TID 0000.0001) // End MONITOR dynamic field statistics
(PID.TID 0000.0001) // =======================================================
 cg2d: Sum(rhs),rhsMax =   8.86724190597328E-05  1.36079320515067E-01
 cg2d: Sum(rhs),rhsMax =   8.93555716401156E-05  1.36082667373205E-01
 cg2d: Sum(rhs),rhsMax =   9.00386166539134E-05  1.36086021108807E-01
 cg2d: Sum(rhs),rhsMax =   9.07215483283387E-05  1.36089381716980E-01
 cg2d: Sum(rhs),rhsMax =   9.14043607379124E-05  1.36092749192817E-01
 cg2d: Sum(rhs),rhsMax =   9.20870482100473E-05  1.36096123531389E-01
 cg2d: Sum(rhs),rhsMax =   9.27696052290356E-05  1.36099504727752E-01
 cg2d: Sum(rhs),rhsMax =   9.34520257995178E-05  1.36102892776947E-01
 cg2d: Sum(rhs),rhsMax =   9.41343044851004E-05  1.36106287673991E-01
 cg2d: Sum(rhs),rhsMax =   9.48164355935215E-05  1.36109689413891E-01
 cg2d: Sum(rhs),rhsMax =   9.54984135255995E-05  1.36113097991633E-01
 cg2d: Sum(rhs),rhsMax =   9.61802327331058E-05  1.36116513402185E-01
 cg2d: Sum(rhs),rhsMax =   9.68618876548985E-05  1.36119935640499E-01
 cg2d: Sum(rhs),rhsMax =   9.75433727117151E-05  1.36123364701511E-01
 cg2d: Sum(rhs),rhsMax =   9.82246824751173E-05  1.36126800580137E-01
 cg2d: Sum(rhs),rhsMax =   9.89058114255429E-05  1.36130243271278E-01
 cg2d: Sum(rhs),rhsMax =   9.95867541909203E-05  1.36133692769816E-01
 cg2d: Sum(rhs),rhsMax =   1.00267505410927E-04  1.36137149070616E-01
 cg2d: Sum(rhs),rhsMax =   1.00948059600046E-04  1.36140612168528E-01
 cg2d: Sum(rhs),rhsMax =   1.01628411604715E-04  1.36144082058383E-01
 cg2d: Sum(rhs),rhsMax =   1.02308555890599E-04  1.36147558734993E-01
 cg2d: Sum(rhs),rhsMax =   1.02988487264177E-04  1.36151042193156E-01
 cg2d: Sum(rhs),rhsMax =   1.03668200404682E-04  1.36154532427652E-01
 cg2d: Sum(rhs),rhsMax =   1.04347690191592E-04  1.36158029433243E-01
 cg2d: Sum(rhs),rhsMax =   1.05026951328822E-04  1.36161533204674E-01
 cg2d: Sum(rhs),rhsMax =   1.05705978668963E-04  1.36165043736672E-01
 cg2d: Sum(rhs),rhsMax =   1.06384767140159E-04  1.36168561023949E-01
 cg2d: Sum(rhs),rhsMax =   1.07063311528426E-04  1.36172085061200E-01
 cg2d: Sum(rhs),rhsMax =   1.07741606849573E-04  1.36175615843099E-01
 cg2d: Sum(rhs),rhsMax =   1.08419648014443E-04  1.36179153364307E-01
 cg2d: Sum(rhs),rhsMax =   1.09097429913715E-04  1.36182697619467E-01
 cg2d: Sum(rhs),rhsMax =   1.09774947618837E-04  1.36186248603203E-01
 cg2d: Sum(rhs),rhsMax =   1.10452196204930E-04  1.36189806310125E-01
 cg2d: Sum(rhs),rhsMax =   1.11129170657130E-04  1.36193370734822E-01
 cg2d: Sum(rhs),rhsMax =   1.11805866057905E-04  1.36196941871870E-01
 cg2d: Sum(rhs),rhsMax =   1.12482277541373E-04  1.36200519715826E-01
 cg2d: Sum(rhs),rhsMax =   1.13158400230496E-04  1.36204104261229E-01
 cg2d: Sum(rhs),rhsMax =   1.13834229476643E-04  1.36207695502604E-01
 cg2d: Sum(rhs),rhsMax =   1.14509760279237E-04  1.36211293434455E-01
 cg2d: Sum(rhs),rhsMax =   1.15184987908913E-04  1.36214898051272E-01
 cg2d: Sum(rhs),rhsMax =   1.15859907692423E-04  1.36218509347527E-01
 cg2d: Sum(rhs),rhsMax =   1.16534514876374E-04  1.36222127317676E-01
 cg2d: Sum(rhs),rhsMax =   1.17208804850599E-04  1.36225751956157E-01
 cg2d: Sum(rhs),rhsMax =   1.17882772855816E-04  1.36229383257390E-01
 cg2d: Sum(rhs),rhsMax =   1.18556414313712E-04  1.36233021215781E-01
 cg2d: Sum(rhs),rhsMax =   1.19229724782014E-04  1.36236665825718E-01
 cg2d: Sum(rhs),rhsMax =   1.19902699462163E-04  1.36240317081569E-01
 cg2d: Sum(rhs),rhsMax =   1.20575334027011E-04  1.36243974977690E-01
 cg2d: Sum(rhs),rhsMax =   1.21247623779299E-04  1.36247639508416E-01
 cg2d: Sum(rhs),rhsMax =   1.21919564453728E-04  1.36251310668069E-01
 cg2d: Sum(rhs),rhsMax =   1.22591151463495E-04  1.36254988450950E-01
 cg2d: Sum(rhs),rhsMax =   1.23262380401609E-04  1.36258672851346E-01
 cg2d: Sum(rhs),rhsMax =   1.23933246807045E-04  1.36262363863527E-01
 cg2d: Sum(rhs),rhsMax =   1.24603746496296E-04  1.36266061481746E-01
 cg2d: Sum(rhs),rhsMax =   1.25273874974403E-04  1.36269765700238E-01
 cg2d: Sum(rhs),rhsMax =   1.25943628042752E-04  1.36273476513221E-01
 cg2d: Sum(rhs),rhsMax =   1.26613001342313E-04  1.36277193914898E-01
 cg2d: Sum(rhs),rhsMax =   1.27281990760358E-04  1.36280917899456E-01
 cg2d: Sum(rhs),rhsMax =   1.27950591874298E-04  1.36284648461062E-01
 cg2d: Sum(rhs),rhsMax =   1.28618800584343E-04  1.36288385593869E-01
 cg2d: Sum(rhs),rhsMax =   1.29286612722953E-04  1.36292129292010E-01
 cg2d: Sum(rhs),rhsMax =   1.29954024213177E-04  1.36295879549607E-01
 cg2d: Sum(rhs),rhsMax =   1.30621030881885E-04  1.36299636360759E-01
 cg2d: Sum(rhs),rhsMax =   1.31287628584279E-04  1.36303399719552E-01
 cg2d: Sum(rhs),rhsMax =   1.31953813386138E-04  1.36307169620055E-01
 cg2d: Sum(rhs),rhsMax =   1.32619581130602E-04  1.36310946056320E-01
 cg2d: Sum(rhs),rhsMax =   1.33284927967789E-04  1.36314729022382E-01
 cg2d: Sum(rhs),rhsMax =   1.33949849843140E-04  1.36318518512259E-01
 cg2d: Sum(rhs),rhsMax =   1.34614342756326E-04  1.36322314519953E-01
 cg2d: Sum(rhs),rhsMax =   1.35278402810832E-04  1.36326117039449E-01
 cg2d: Sum(rhs),rhsMax =   1.35942026148987E-04  1.36329926064717E-01
 cg2d: Sum(rhs),rhsMax =   1.36605208927566E-04  1.36333741589708E-01
(PID.TID 0000.0001)      cg2d_init_res =   5.33181546710938E-04
(PID.TID 0000.0001)      cg2d_iters(min,last) =      -1      73
(PID.TID 0000.0001)      cg2d_last_res =   9.36053365015155E-08
(PID.TID 0000.0001) // =======================================================
(PID.TID 0000.0001) // Begin MONITOR dynamic field statistics
(PID.TID 0000.0001) // =======================================================
(PID.TID 0000.0001) %MON time_tsnumber                =                 20088
(PID.TID 0000.0001) %MON time_secondsf                =   2.4105600000000E+07
(PID.TID 0000.0001) %MON dynstat_eta_max              =   4.4578364026122E-02
(PID.TID 0000.0001) %MON dynstat_eta_min              =  -2.2370831077018E-02
(PID.TID 0000.0001) %MON dynstat_eta_mean             =  -9.3573887421118E-08
(PID.TID 0000.0001) %MON dynstat_eta_sd               =   1.6052908443944E-02
(PID.TID 0000.0001) %MON dynstat_eta_del2             =   1.7488747417470E-05
(PID.TID 0000.0001) %MON dynstat_uvel_max             =   3.0385200427215E-02
(PID.TID 0000.0001) %MON dynstat_uvel_min             =  -1.5026111198002E-02
(PID.TID 0000.0001) %MON dynstat_uvel_mean            =  -8.0722490706887E-08
(PID.TID 0000.0001) %MON dynstat_uvel_sd              =   6.6592390699302E-03
(PID.TID 0000.0001) %MON dynstat_uvel_del2            =   7.8345077056467E-06
(PID.TID 0000.0001) %MON dynstat_vvel_max             =   8.1933263757777E-02
(PID.TID 0000.0001) %MON dynstat_vvel_min             =  -3.0571256370449E-02
(PID.TID 0000.0001) %MON dynstat_vvel_mean            =  -1.7850733340270E-08
(PID.TID 0000.0001) %MON dynstat_vvel_sd              =   1.4290879047342E-02
(PID.TID 0000.0001) %MON dynstat_vvel_del2            =   7.2834084088962E-05
(PID.TID 0000.0001) %MON dynstat_wvel_max             =   7.8823710553843E-09
(PID.TID 0000.0001) %MON dynstat_wvel_min             =  -5.4466040796251E-09
(PID.TID 0000.0001) %MON dynstat_wvel_mean            =  -7.1109853807785E-24
(PID.TID 0000.0001) %MON dynstat_wvel_sd              =   3.2786158826706E-09
(PID.TID 0000.0001) %MON dynstat_wvel_del2            =   9.8048324110948E-13
(PID.TID 0000.0001) %MON dynstat_theta_max            =   2.0000000000000E+01
(PID.TID 0000.0001) %MON dynstat_theta_min            =   2.0000000000000E+01
(PID.TID 0000.0001) %MON dynstat_theta_mean           =   2.0000000000000E+01
(PID.TID 0000.0001) %MON dynstat_theta_sd             =   0.0000000000000E+00
(PID.TID 0000.0001) %MON dynstat_theta_del2           =   0.0000000000000E+00
(PID.TID 0000.0001) %MON dynstat_salt_max             =   3.0000000000000E+01
(PID.TID 0000.0001) %MON dynstat_salt_min             =   3.0000000000000E+01
(PID.TID 0000.0001) %MON dynstat_salt_mean            =   3.0000000000000E+01
(PID.TID 0000.0001) %MON dynstat_salt_sd              =   0.0000000000000E+00
(PID.TID 0000.0001) %MON dynstat_salt_del2            =   0.0000000000000E+00
(PID.TID 0000.0001) %MON trAdv_CFL_u_max              =   1.8230750474737E-03
(PID.TID 0000.0001) %MON trAdv_CFL_v_max              =   4.9158800618429E-03
(PID.TID 0000.0001) %MON trAdv_CFL_w_max              =   1.8926322545798E-09
(PID.TID 0000.0001) %MON advcfl_uvel_max              =   1.8231120256329E-03
(PID.TID 0000.0001) %MON advcfl_vvel_max              =   4.9159958254666E-03
(PID.TID 0000.0001) %MON advcfl_wvel_max              =   3.7835381065845E-09
(PID.TID 0000.0001) %MON advcfl_W_hf_max              =   0.0000000000000E+00
(PID.TID 0000.0001) %MON pe_b_mean                    =   2.5279964799756E-07
(PID.TID 0000.0001) %MON ke_max                       =   3.3529510100444E-03
(PID.TID 0000.0001) %MON ke_mean                      =   1.2221588873035E-04
(PID.TID 0000.0001) %MON ke_vol                       =   7.2000000000000E+15
(PID.TID 0000.0001) %MON vort_r_min                   =  -1.4481607212059E-06
(PID.TID 0000.0001) %MON vort_r_max                   =   2.2607009204689E-06
(PID.TID 0000.0001) %MON vort_a_mean                  =   1.0600000000000E-04
(PID.TID 0000.0001) %MON vort_a_sd                    =   3.5359166498702E-06
(PID.TID 0000.0001) %MON vort_p_mean                  =   1.1130000000000E-04
(PID.TID 0000.0001) %MON vort_p_sd                    =   4.1152074034457E-05
(PID.TID 0000.0001) %MON surfExpan_theta_mean         =  -1.4274014069492E-22
(PID.TID 0000.0001) %MON surfExpan_salt_mean          =  -2.1411021104238E-22
(PID.TID 0000.0001) // =======================================================
(PID.TID 0000.0001) // End MONITOR dynamic field statistics
(PID.TID 0000.0001) // =======================================================
 cg2d: Sum(rhs),rhsMax =   1.37267947208408E-04  1.36337563608358E-01
 cg2d: Sum(rhs),rhsMax =   1.37930237296306E-04  1.36341392114586E-01
 cg2d: Sum(rhs),rhsMax =   1.38592075328249E-04  1.36345227102294E-01
 cg2d: Sum(rhs),rhsMax =   1.39253457476260E-04  1.36349068565369E-01
 cg2d: Sum(rhs),rhsMax =   1.39914380156826E-04  1.36352916497680E-01
 cg2d: Sum(rhs),rhsMax =   1.40574839537901E-04  1.36356770893079E-01
 cg2d: Sum(rhs),rhsMax =   1.41234832007580E-04  1.36360631745403E-01
 cg2d: Sum(rhs),rhsMax =   1.41894353855193E-04  1.36364499048473E-01
 cg2d: Sum(rhs),rhsMax =   1.42553401474415E-04  1.36368372796092E-01
 cg2d: Sum(rhs),rhsMax =   1.43211971284416E-04  1.36372252982046E-01
 cg2d: Sum(rhs),rhsMax =   1.43870059593463E-04  1.36376139600107E-01
 cg2d: Sum(rhs),rhsMax =   1.44527662981302E-04  1.36380032644028E-01
 cg2d: Sum(rhs),rhsMax =   1.45184777863215E-04  1.36383932107548E-01
 cg2d: Sum(rhs),rhsMax =   1.45841400629506E-04  1.36387837984387E-01
 cg2d: Sum(rhs),rhsMax =   1.46497527950315E-04  1.36391750268252E-01
 cg2d: Sum(rhs),rhsMax =   1.47153156288608E-04  1.36395668952830E-01
 cg2d: Sum(rhs),rhsMax =   1.47808282217589E-04  1.36399594031795E-01
 cg2d: Sum(rhs),rhsMax =   1.48462902310508E-04  1.36403525498802E-01
 cg2d: Sum(rhs),rhsMax =   1.49117013222346E-04  1.36407463347489E-01
 cg2d: Sum(rhs),rhsMax =   1.49770611579693E-04  1.36411407571483E-01
 cg2d: Sum(rhs),rhsMax =   1.50423694003496E-04  1.36415358164388E-01
 cg2d: Sum(rhs),rhsMax =   1.51076257316429E-04  1.36419315119797E-01
 cg2d: Sum(rhs),rhsMax =   1.51728298154307E-04  1.36423278431283E-01
 cg2d: Sum(rhs),rhsMax =   1.52379813065163E-04  1.36427248092405E-01
 cg2d: Sum(rhs),rhsMax =   1.53030799035496E-04  1.36431224096705E-01
 cg2d: Sum(rhs),rhsMax =   1.53681252838376E-04  1.36435206437709E-01
 cg2d: Sum(rhs),rhsMax =   1.54331171187761E-04  1.36439195108927E-01
 cg2d: Sum(rhs),rhsMax =   1.54980550887474E-04  1.36443190103851E-01
 cg2d: Sum(rhs),rhsMax =   1.55629388852527E-04  1.36447191415960E-01
 cg2d: Sum(rhs),rhsMax =   1.56277682059632E-04  1.36451199038714E-01
 cg2d: Sum(rhs),rhsMax =   1.56925427202281E-04  1.36455212965559E-01
 cg2d: Sum(rhs),rhsMax =   1.57572621287481E-04  1.36459233189922E-01
 cg2d: Sum(rhs),rhsMax =   1.58219261338481E-04  1.36463259705217E-01
 cg2d: Sum(rhs),rhsMax =   1.58865344193264E-04  1.36467292504843E-01
 cg2d: Sum(rhs),rhsMax =   1.59510866911804E-04  1.36471331582175E-01
 cg2d: Sum(rhs),rhsMax =   1.60155826429451E-04  1.36475376930583E-01
 cg2d: Sum(rhs),rhsMax =   1.60800219841406E-04  1.36479428543412E-01
 cg2d: Sum(rhs),rhsMax =   1.61444044176425E-04  1.36483486413996E-01
 cg2d: Sum(rhs),rhsMax =   1.62087296620792E-04  1.36487550535650E-01
 cg2d: Sum(rhs),rhsMax =   1.62729974016059E-04  1.36491620901676E-01
 cg2d: Sum(rhs),rhsMax =   1.63372073720717E-04  1.36495697505357E-01
 cg2d: Sum(rhs),rhsMax =   1.64013592649776E-04  1.36499780339961E-01
 cg2d: Sum(rhs),rhsMax =   1.64654528190239E-04  1.36503869398742E-01
 cg2d: Sum(rhs),rhsMax =   1.65294877370149E-04  1.36507964674936E-01
 cg2d: Sum(rhs),rhsMax =   1.65934637458080E-04  1.36512066161762E-01
 cg2d: Sum(rhs),rhsMax =   1.66573805603921E-04  1.36516173852426E-01
 cg2d: Sum(rhs),rhsMax =   1.67212379187439E-04  1.36520287740117E-01
 cg2d: Sum(rhs),rhsMax =   1.67850355370442E-04  1.36524407818006E-01
 cg2d: Sum(rhs),rhsMax =   1.68487731534319E-04  1.36528534079252E-01
 cg2d: Sum(rhs),rhsMax =   1.69124504819125E-04  1.36532666516994E-01
 cg2d: Sum(rhs),rhsMax =   1.69760672603709E-04  1.36536805124360E-01
 cg2d: Sum(rhs),rhsMax =   1.70396232283803E-04  1.36540949894455E-01
 cg2d: Sum(rhs),rhsMax =   1.71031181281779E-04  1.36545100820377E-01
 cg2d: Sum(rhs),rhsMax =   1.71665516789975E-04  1.36549257895202E-01
 cg2d: Sum(rhs),rhsMax =   1.72299236377983E-04  1.36553421111990E-01
 cg2d: Sum(rhs),rhsMax =   1.72932337413485E-04  1.36557590463790E-01
 cg2d: Sum(rhs),rhsMax =   1.73564817300716E-04  1.36561765943632E-01
 cg2d: Sum(rhs),rhsMax =   1.74196673522018E-04  1.36565947544530E-01
 cg2d: Sum(rhs),rhsMax =   1.74827903492933E-04  1.36570135259483E-01
 cg2d: Sum(rhs),rhsMax =   1.75458504826291E-04  1.36574329081474E-01
 cg2d: Sum(rhs),rhsMax =   1.76088475036202E-04  1.36578529003472E-01
 cg2d: Sum(rhs),rhsMax =   1.76717811673401E-04  1.36582735018427E-01
 cg2d: Sum(rhs),rhsMax =   1.77346512143964E-04  1.36586947119277E-01
 cg2d: Sum(rhs),rhsMax =   1.77974574127747E-04  1.36591165298941E-01
 cg2d: Sum(rhs),rhsMax =   1.78601995237147E-04  1.36595389550325E-01
 cg2d: Sum(rhs),rhsMax =   1.79228773019582E-04  1.36599619866319E-01
 cg2d: Sum(rhs),rhsMax =   1.79854905142535E-04  1.36603856239795E-01
 cg2d: Sum(rhs),rhsMax =   1.80480389247967E-04  1.36608098663614E-01
 cg2d: Sum(rhs),rhsMax =   1.81105222992610E-04  1.36612347130615E-01
 cg2d: Sum(rhs),rhsMax =   1.81729403974907E-04  1.36616601633628E-01
 cg2d: Sum(rhs),rhsMax =   1.82352929965572E-04  1.36620862165463E-01
 cg2d: Sum(rhs),rhsMax =   1.82975798739101E-04  1.36625128718916E-01
(PID.TID 0000.0001)      cg2d_init_res =   5.33914581809457E-04
(PID.TID 0000.0001)      cg2d_iters(min,last) =      -1      73
(PID.TID 0000.0001)      cg2d_last_res =   9.00350631251110E-08
(PID.TID 0000.0001) // =======================================================
(PID.TID 0000.0001) // Begin MONITOR dynamic field statistics
(PID.TID 0000.0001) // =======================================================
(PID.TID 0000.0001) %MON time_tsnumber                =                 20160
(PID.TID 0000.0001) %MON time_secondsf                =   2.4192000000000E+07
(PID.TID 0000.0001) %MON dynstat_eta_max              =   4.4559708966665E-02
(PID.TID 0000.0001) %MON dynstat_eta_min              =  -2.2564773430939E-02
(PID.TID 0000.0001) %MON dynstat_eta_mean             =  -1.2542442949841E-07
(PID.TID 0000.0001) %MON dynstat_eta_sd               =   1.6226223427595E-02
(PID.TID 0000.0001) %MON dynstat_eta_del2             =   1.7482502078541E-05
(PID.TID 0000.0001) %MON dynstat_uvel_max             =   3.0433461316065E-02
(PID.TID 0000.0001) %MON dynstat_uvel_min             =  -1.5064138751959E-02
(PID.TID 0000.0001) %MON dynstat_uvel_mean            =  -9.3918857703737E-08
(PID.TID 0000.0001) %MON dynstat_uvel_sd              =   6.7191079993709E-03
(PID.TID 0000.0001) %MON dynstat_uvel_del2            =   7.8750807196381E-06
(PID.TID 0000.0001) %MON dynstat_vvel_max             =   8.2082618026156E-02
(PID.TID 0000.0001) %MON dynstat_vvel_min             =  -3.0420753988092E-02
(PID.TID 0000.0001) %MON dynstat_vvel_mean            =  -1.7759110308883E-08
(PID.TID 0000.0001) %MON dynstat_vvel_sd              =   1.4308672999120E-02
(PID.TID 0000.0001) %MON dynstat_vvel_del2            =   7.2852361508605E-05
(PID.TID 0000.0001) %MON dynstat_wvel_max             =   7.6539988462901E-09
(PID.TID 0000.0001) %MON dynstat_wvel_min             =  -5.6872582025244E-09
(PID.TID 0000.0001) %MON dynstat_wvel_mean            =  -1.6853390308016E-21
(PID.TID 0000.0001) %MON dynstat_wvel_sd              =   3.2752663676926E-09
(PID.TID 0000.0001) %MON dynstat_wvel_del2            =   9.7690446187368E-13
(PID.TID 0000.0001) %MON dynstat_theta_max            =   2.0000000000000E+01
(PID.TID 0000.0001) %MON dynstat_theta_min            =   2.0000000000000E+01
(PID.TID 0000.0001) %MON dynstat_theta_mean           =   2.0000000000000E+01
(PID.TID 0000.0001) %MON dynstat_theta_sd             =   0.0000000000000E+00
(PID.TID 0000.0001) %MON dynstat_theta_del2           =   0.0000000000000E+00
(PID.TID 0000.0001) %MON dynstat_salt_max             =   3.0000000000000E+01
(PID.TID 0000.0001) %MON dynstat_salt_min             =   3.0000000000000E+01
(PID.TID 0000.0001) %MON dynstat_salt_mean            =   3.0000000000000E+01
(PID.TID 0000.0001) %MON dynstat_salt_sd              =   0.0000000000000E+00
(PID.TID 0000.0001) %MON dynstat_salt_del2            =   0.0000000000000E+00
(PID.TID 0000.0001) %MON trAdv_CFL_u_max              =   1.8259643568518E-03
(PID.TID 0000.0001) %MON trAdv_CFL_v_max              =   4.9248243202210E-03
(PID.TID 0000.0001) %MON trAdv_CFL_w_max              =   1.8378462249006E-09
(PID.TID 0000.0001) %MON advcfl_uvel_max              =   1.8260076789639E-03
(PID.TID 0000.0001) %MON advcfl_vvel_max              =   4.9249570815694E-03
(PID.TID 0000.0001) %MON advcfl_wvel_max              =   3.6739194462192E-09
(PID.TID 0000.0001) %MON advcfl_W_hf_max              =   0.0000000000000E+00
(PID.TID 0000.0001) %MON pe_b_mean                    =   2.5828781052996E-07
(PID.TID 0000.0001) %MON ke_max                       =   3.3650210418343E-03
(PID.TID 0000.0001) %MON ke_mean                      =   1.2285989652845E-04
(PID.TID 0000.0001) %MON ke_vol                       =   7.2000000000000E+15
(PID.TID 0000.0001) %MON vort_r_min                   =  -1.4482558699181E-06
(PID.TID 0000.0001) %MON vort_r_max                   =   2.2663049064691E-06
(PID.TID 0000.0001) %MON vort_a_mean                  =   1.0600000000000E-04
(PID.TID 0000.0001) %MON vort_a_sd                    =   3.5359415984669E-06
(PID.TID 0000.0001) %MON vort_p_mean                  =   1.1130000000000E-04
(PID.TID 0000.0001) %MON vort_p_sd                    =   4.1152140933372E-05
(PID.TID 0000.0001) %MON surfExpan_theta_mean         =  -3.3704044493593E-20
(PID.TID 0000.0001) %MON surfExpan_salt_mean          =  -5.0557328693894E-20
(PID.TID 0000.0001) // =======================================================
(PID.TID 0000.0001) // End MONITOR dynamic field statistics
(PID.TID 0000.0001) // =======================================================
 cg2d: Sum(rhs),rhsMax =   1.83598007917152E-04  1.36629401286770E-01
 cg2d: Sum(rhs),rhsMax =   1.84219555342503E-04  1.36633679861787E-01
 cg2d: Sum(rhs),rhsMax =   1.84840438756678E-04  1.36637964436719E-01
 cg2d: Sum(rhs),rhsMax =   1.85460655957247E-04  1.36642255004298E-01
 cg2d: Sum(rhs),rhsMax =   1.86080204668480E-04  1.36646551557245E-01
 cg2d: Sum(rhs),rhsMax =   1.86699082759170E-04  1.36650854088261E-01
 cg2d: Sum(rhs),rhsMax =   1.87317288010292E-04  1.36655162590037E-01
 cg2d: Sum(rhs),rhsMax =   1.87934818399649E-04  1.36659477055242E-01
 cg2d: Sum(rhs),rhsMax =   1.88551671649274E-04  1.36663797476536E-01
 cg2d: Sum(rhs),rhsMax =   1.89167845815908E-04  1.36668123846559E-01
 cg2d: Sum(rhs),rhsMax =   1.89783338457651E-04  1.36672456157939E-01
 cg2d: Sum(rhs),rhsMax =   1.90398147896405E-04  1.36676794403287E-01
 cg2d: Sum(rhs),rhsMax =   1.91012271863010E-04  1.36681138575198E-01
 cg2d: Sum(rhs),rhsMax =   1.91625708282854E-04  1.36685488666252E-01
 cg2d: Sum(rhs),rhsMax =   1.92238455135660E-04  1.36689844669016E-01
 cg2d: Sum(rhs),rhsMax =   1.92850510426792E-04  1.36694206576041E-01
 cg2d: Sum(rhs),rhsMax =   1.93461872234592E-04  1.36698574379859E-01
 cg2d: Sum(rhs),rhsMax =   1.94072538386559E-04  1.36702948072991E-01
 cg2d: Sum(rhs),rhsMax =   1.94682506973429E-04  1.36707327647943E-01
 cg2d: Sum(rhs),rhsMax =   1.95291776117074E-04  1.36711713097202E-01
 cg2d: Sum(rhs),rhsMax =   1.95900343829805E-04  1.36716104413245E-01
 cg2d: Sum(rhs),rhsMax =   1.96600406669809E-04  1.36720501500461E-01
 cg2d: Sum(rhs),rhsMax =   1.97299738551697E-04  1.36724904535577E-01
 cg2d: Sum(rhs),rhsMax =   1.97998315498977E-04  1.36729313412973E-01
 cg2d: Sum(rhs),rhsMax =   1.98696123980348E-04  1.36733728123352E-01
 cg2d: Sum(rhs),rhsMax =   1.99393158045741E-04  1.36738148662605E-01
 cg2d: Sum(rhs),rhsMax =   2.00089415365074E-04  1.36742575024075E-01
 cg2d: Sum(rhs),rhsMax =   2.00784897146423E-04  1.36747007199785E-01
 cg2d: Sum(rhs),rhsMax =   2.01479604657672E-04  1.36751445181662E-01
 cg2d: Sum(rhs),rhsMax =   2.02173538066135E-04  1.36755888961823E-01
 cg2d: Sum(rhs),rhsMax =   2.02866695518954E-04  1.36760338532559E-01
 cg2d: Sum(rhs),rhsMax =   2.03559074669773E-04  1.36764793886229E-01
 cg2d: Sum(rhs),rhsMax =   2.04250672973479E-04  1.36769255015191E-01
 cg2d: Sum(rhs),rhsMax =   2.04941488289055E-04  1.36773721911761E-01
 cg2d: Sum(rhs),rhsMax =   2.05631518741959E-04  1.36778194568213E-01
 cg2d: Sum(rhs),rhsMax =   2.06320762951714E-04  1.36782672976780E-01
 cg2d: Sum(rhs),rhsMax =   2.07009219509684E-04  1.36787157129674E-01
 cg2d: Sum(rhs),rhsMax =   2.07696886658357E-04  1.36791647019098E-01
 cg2d: Sum(rhs),rhsMax =   2.08383762962229E-04  1.36796142637245E-01
 cg2d: Sum(rhs),rhsMax =   2.09069846708628E-04  1.36800643976307E-01
 cg2d: Sum(rhs),rhsMax =   2.09755136209433E-04  1.36805151028467E-01
 cg2d: Sum(rhs),rhsMax =   2.10439629833049E-04  1.36809663785892E-01
 cg2d: Sum(rhs),rhsMax =   2.11123326035094E-04  1.36814182240733E-01
 cg2d: Sum(rhs),rhsMax =   2.11806223125235E-04  1.36818706385125E-01
 cg2d: Sum(rhs),rhsMax =   2.12488319595626E-04  1.36823236211181E-01
 cg2d: Sum(rhs),rhsMax =   2.13169613946183E-04  1.36827771710999E-01
 cg2d: Sum(rhs),rhsMax =   2.13850104509448E-04  1.36832312876663E-01
 cg2d: Sum(rhs),rhsMax =   2.14529789957853E-04  1.36836859700243E-01
 cg2d: Sum(rhs),rhsMax =   2.15208668542388E-04  1.36841412173794E-01
 cg2d: Sum(rhs),rhsMax =   2.15886738961083E-04  1.36845970289357E-01
 cg2d: Sum(rhs),rhsMax =   2.16563999460069E-04  1.36850534038961E-01
 cg2d: Sum(rhs),rhsMax =   2.17240448769145E-04  1.36855103414619E-01
 cg2d: Sum(rhs),rhsMax =   2.17916085417483E-04  1.36859678408331E-01
 cg2d: Sum(rhs),rhsMax =   2.18590907846421E-04  1.36864259012080E-01
 cg2d: Sum(rhs),rhsMax =   2.19264914608660E-04  1.36868845217836E-01
 cg2d: Sum(rhs),rhsMax =   2.19938104293613E-04  1.36873437017553E-01
 cg2d: Sum(rhs),rhsMax =   2.20610475551099E-04  1.36878034403172E-01
 cg2d: Sum(rhs),rhsMax =   2.21282026747676E-04  1.36882637366618E-01
 cg2d: Sum(rhs),rhsMax =   2.21952756655430E-04  1.36887245899800E-01
 cg2d: Sum(rhs),rhsMax =   2.22622663810708E-04  1.36891859994616E-01
 cg2d: Sum(rhs),rhsMax =   2.23291746831905E-04  1.36896479642948E-01
 cg2d: Sum(rhs),rhsMax =   2.23960004357725E-04  1.36901104836663E-01
 cg2d: Sum(rhs),rhsMax =   2.24627435001898E-04  1.36905735567615E-01
 cg2d: Sum(rhs),rhsMax =   2.25294037456839E-04  1.36910371827643E-01
 cg2d: Sum(rhs),rhsMax =   2.25959810283605E-04  1.36915013608571E-01
 cg2d: Sum(rhs),rhsMax =   2.26624752297075E-04  1.36919660902210E-01
 cg2d: Sum(rhs),rhsMax =   2.27288862056095E-04  1.36924313700356E-01
 cg2d: Sum(rhs),rhsMax =   2.27952138334558E-04  1.36928971994789E-01
 cg2d: Sum(rhs),rhsMax =   2.28614579760992E-04  1.36933635777278E-01
 cg2d: Sum(rhs),rhsMax =   2.29276185071363E-04  1.36938305039574E-01
 cg2d: Sum(rhs),rhsMax =   2.29936952944701E-04  1.36942979773417E-01
 cg2d: Sum(rhs),rhsMax =   2.30596882229579E-04  1.36947659970531E-01
(PID.TID 0000.0001)      cg2d_init_res =   5.34158283293594E-04
(PID.TID 0000.0001)      cg2d_iters(min,last) =      -1      72
(PID.TID 0000.0001)      cg2d_last_res =   9.67408011264176E-08
(PID.TID 0000.0001) // =======================================================
(PID.TID 0000.0001) // Begin MONITOR dynamic field statistics
(PID.TID 0000.0001) // =======================================================
(PID.TID 0000.0001) %MON time_tsnumber                =                 20232
(PID.TID 0000.0001) %MON time_secondsf                =   2.4278400000000E+07
(PID.TID 0000.0001) %MON dynstat_eta_max              =   4.4577487657977E-02
(PID.TID 0000.0001) %MON dynstat_eta_min              =  -2.2742371291775E-02
(PID.TID 0000.0001) %MON dynstat_eta_mean             =  -1.5835523871049E-07
(PID.TID 0000.0001) %MON dynstat_eta_sd               =   1.6406321289482E-02
(PID.TID 0000.0001) %MON dynstat_eta_del2             =   1.7478216280286E-05
(PID.TID 0000.0001) %MON dynstat_uvel_max             =   3.0489149640051E-02
(PID.TID 0000.0001) %MON dynstat_uvel_min             =  -1.5108271642038E-02
(PID.TID 0000.0001) %MON dynstat_uvel_mean            =  -1.0592886829552E-07
(PID.TID 0000.0001) %MON dynstat_uvel_sd              =   6.7772374069511E-03
(PID.TID 0000.0001) %MON dynstat_uvel_del2            =   7.9150279986261E-06
(PID.TID 0000.0001) %MON dynstat_vvel_max             =   8.2251729421089E-02
(PID.TID 0000.0001) %MON dynstat_vvel_min             =  -3.0269739652962E-02
(PID.TID 0000.0001) %MON dynstat_vvel_mean            =  -1.7544412380502E-08
(PID.TID 0000.0001) %MON dynstat_vvel_sd              =   1.4330151307552E-02
(PID.TID 0000.0001) %MON dynstat_vvel_del2            =   7.2884542849198E-05
(PID.TID 0000.0001) %MON dynstat_wvel_max             =   7.4057477274619E-09
(PID.TID 0000.0001) %MON dynstat_wvel_min             =  -5.9032784626470E-09
(PID.TID 0000.0001) %MON dynstat_wvel_mean            =  -3.4171067555791E-22
(PID.TID 0000.0001) %MON dynstat_wvel_sd              =   3.2713221433696E-09
(PID.TID 0000.0001) %MON dynstat_wvel_del2            =   9.7614895858057E-13
(PID.TID 0000.0001) %MON dynstat_theta_max            =   2.0000000000000E+01
(PID.TID 0000.0001) %MON dynstat_theta_min            =   2.0000000000000E+01
(PID.TID 0000.0001) %MON dynstat_theta_mean           =   2.0000000000000E+01
(PID.TID 0000.0001) %MON dynstat_theta_sd             =   0.0000000000000E+00
(PID.TID 0000.0001) %MON dynstat_theta_del2           =   0.0000000000000E+00
(PID.TID 0000.0001) %MON dynstat_salt_max             =   3.0000000000000E+01
(PID.TID 0000.0001) %MON dynstat_salt_min             =   3.0000000000000E+01
(PID.TID 0000.0001) %MON dynstat_salt_mean            =   3.0000000000000E+01
(PID.TID 0000.0001) %MON dynstat_salt_sd              =   0.0000000000000E+00
(PID.TID 0000.0001) %MON dynstat_salt_del2            =   0.0000000000000E+00
(PID.TID 0000.0001) %MON trAdv_CFL_u_max              =   1.8292996295713E-03
(PID.TID 0000.0001) %MON trAdv_CFL_v_max              =   4.9349550952130E-03
(PID.TID 0000.0001) %MON trAdv_CFL_w_max              =   1.7782928803819E-09
(PID.TID 0000.0001) %MON advcfl_uvel_max              =   1.8293489784031E-03
(PID.TID 0000.0001) %MON advcfl_vvel_max              =   4.9351037652654E-03
(PID.TID 0000.0001) %MON advcfl_wvel_max              =   3.5547589091817E-09
(PID.TID 0000.0001) %MON advcfl_W_hf_max              =   0.0000000000000E+00
(PID.TID 0000.0001) %MON pe_b_mean                    =   2.6405319809148E-07
(PID.TID 0000.0001) %MON ke_max                       =   3.3787255374161E-03
(PID.TID 0000.0001) %MON ke_mean                      =   1.2354805682803E-04
(PID.TID 0000.0001) %MON ke_vol                       =   7.2000000000000E+15
(PID.TID 0000.0001) %MON vort_r_min                   =  -1.4485017137089E-06
(PID.TID 0000.0001) %MON vort_r_max                   =   2.2724026108778E-06
(PID.TID 0000.0001) %MON vort_a_mean                  =   1.0600000000000E-04
(PID.TID 0000.0001) %MON vort_a_sd                    =   3.5359728911786E-06
(PID.TID 0000.0001) %MON vort_p_mean                  =   1.1130000000000E-04
(PID.TID 0000.0001) %MON vort_p_sd                    =   4.1152201247890E-05
(PID.TID 0000.0001) %MON surfExpan_theta_mean         =  -6.8411054598982E-21
(PID.TID 0000.0001) %MON surfExpan_salt_mean          =  -1.0261026596304E-20
(PID.TID 0000.0001) // =======================================================
(PID.TID 0000.0001) // End MONITOR dynamic field statistics
(PID.TID 0000.0001) // =======================================================
 cg2d: Sum(rhs),rhsMax =   2.31255971559255E-04  1.36952345622627E-01
 cg2d: Sum(rhs),rhsMax =   2.31914219733058E-04  1.36957036721400E-01
 cg2d: Sum(rhs),rhsMax =   2.32571625393828E-04  1.36961733258531E-01
 cg2d: Sum(rhs),rhsMax =   2.33228187505781E-04  1.36966435225690E-01
 cg2d: Sum(rhs),rhsMax =   2.33883904720311E-04  1.36971142614529E-01
 cg2d: Sum(rhs),rhsMax =   2.34538775823643E-04  1.36975855416687E-01
 cg2d: Sum(rhs),rhsMax =   2.35192799632641E-04  1.36980573623791E-01
 cg2d: Sum(rhs),rhsMax =   2.35845975027376E-04  1.36985297227450E-01
 cg2d: Sum(rhs),rhsMax =   2.36498300738134E-04  1.36990026219263E-01
 cg2d: Sum(rhs),rhsMax =   2.37149775591119E-04  1.36994760590812E-01
 cg2d: Sum(rhs),rhsMax =   2.37800398486040E-04  1.36999500333667E-01
 cg2d: Sum(rhs),rhsMax =   2.38450168240430E-04  1.37004245439382E-01
 cg2d: Sum(rhs),rhsMax =   2.39099083746812E-04  1.37008995899498E-01
 cg2d: Sum(rhs),rhsMax =   2.39747143719420E-04  1.37013751705542E-01
 cg2d: Sum(rhs),rhsMax =   2.40394347149393E-04  1.37018512849028E-01
 cg2d: Sum(rhs),rhsMax =   2.41040692922168E-04  1.37023279321455E-01
 cg2d: Sum(rhs),rhsMax =   2.41686179927462E-04  1.37028051114308E-01
 cg2d: Sum(rhs),rhsMax =   2.42330807084520E-04  1.37032828219057E-01
 cg2d: Sum(rhs),rhsMax =   2.42974573171881E-04  1.37037610627163E-01
 cg2d: Sum(rhs),rhsMax =   2.43617477329852E-04  1.37042398330065E-01
 cg2d: Sum(rhs),rhsMax =   2.44259518343055E-04  1.37047191319197E-01
 cg2d: Sum(rhs),rhsMax =   2.44900695220629E-04  1.37051989585972E-01
 cg2d: Sum(rhs),rhsMax =   2.45541006716351E-04  1.37056793121795E-01
 cg2d: Sum(rhs),rhsMax =   2.46180452029044E-04  1.37061601918052E-01
 cg2d: Sum(rhs),rhsMax =   2.46819029936968E-04  1.37066415966118E-01
 cg2d: Sum(rhs),rhsMax =   2.47456739523319E-04  1.37071235257354E-01
 cg2d: Sum(rhs),rhsMax =   2.48093579711384E-04  1.37076059783109E-01
 cg2d: Sum(rhs),rhsMax =   2.48729549550201E-04  1.37080889534714E-01
 cg2d: Sum(rhs),rhsMax =   2.49364648001313E-04  1.37085724503490E-01
 cg2d: Sum(rhs),rhsMax =   2.49998874013489E-04  1.37090564680744E-01
 cg2d: Sum(rhs),rhsMax =   2.50632226658444E-04  1.37095410057767E-01
 cg2d: Sum(rhs),rhsMax =   2.51264704938272E-04  1.37100260625839E-01
 cg2d: Sum(rhs),rhsMax =   2.51896307873639E-04  1.37105116376224E-01
 cg2d: Sum(rhs),rhsMax =   2.52527034521505E-04  1.37109977300175E-01
 cg2d: Sum(rhs),rhsMax =   2.53156883972529E-04  1.37114843388931E-01
 cg2d: Sum(rhs),rhsMax =   2.53785855139597E-04  1.37119714633714E-01
 cg2d: Sum(rhs),rhsMax =   2.54413947203430E-04  1.37124591025736E-01
 cg2d: Sum(rhs),rhsMax =   2.55041159227372E-04  1.37129472556197E-01
 cg2d: Sum(rhs),rhsMax =   2.55667490312233E-04  1.37134359216278E-01
 cg2d: Sum(rhs),rhsMax =   2.56292939361767E-04  1.37139250997152E-01
 cg2d: Sum(rhs),rhsMax =   2.56917505722285E-04  1.37144147889976E-01
 cg2d: Sum(rhs),rhsMax =   2.57541188375152E-04  1.37149049885893E-01
 cg2d: Sum(rhs),rhsMax =   2.58163986358380E-04  1.37153956976034E-01
 cg2d: Sum(rhs),rhsMax =   2.58785898851727E-04  1.37158869151515E-01
 cg2d: Sum(rhs),rhsMax =   2.59406925100809E-04  1.37163786403441E-01
 cg2d: Sum(rhs),rhsMax =   2.60027064063865E-04  1.37168708722902E-01
 cg2d: Sum(rhs),rhsMax =   2.60646314867496E-04  1.37173636100976E-01
 cg2d: Sum(rhs),rhsMax =   2.61264676693955E-04  1.37178568528726E-01
 cg2d: Sum(rhs),rhsMax =   2.61882148772351E-04  1.37183505997202E-01
 cg2d: Sum(rhs),rhsMax =   2.62498730218160E-04  1.37188448497442E-01
 cg2d: Sum(rhs),rhsMax =   2.63114420216764E-04  1.37193396020470E-01
 cg2d: Sum(rhs),rhsMax =   2.63729217781616E-04  1.37198348557297E-01
 cg2d: Sum(rhs),rhsMax =   2.64343122384251E-04  1.37203306098921E-01
 cg2d: Sum(rhs),rhsMax =   2.64956132936890E-04  1.37208268636325E-01
 cg2d: Sum(rhs),rhsMax =   2.65568248789477E-04  1.37213236160482E-01
 cg2d: Sum(rhs),rhsMax =   2.66179469214437E-04  1.37218208662350E-01
 cg2d: Sum(rhs),rhsMax =   2.66789793208548E-04  1.37223186132874E-01
 cg2d: Sum(rhs),rhsMax =   2.67399220248680E-04  1.37228168562985E-01
 cg2d: Sum(rhs),rhsMax =   2.68007749262099E-04  1.37233155943603E-01
 cg2d: Sum(rhs),rhsMax =   2.68615379667698E-04  1.37238148265635E-01
 cg2d: Sum(rhs),rhsMax =   2.69222110676922E-04  1.37243145519971E-01
 cg2d: Sum(rhs),rhsMax =   2.69827941514959E-04  1.37248147697494E-01
 cg2d: Sum(rhs),rhsMax =   2.70432871407654E-04  1.37253154789070E-01
 cg2d: Sum(rhs),rhsMax =   2.71036899698580E-04  1.37258166785553E-01
 cg2d: Sum(rhs),rhsMax =   2.71640025620037E-04  1.37263183677783E-01
 cg2d: Sum(rhs),rhsMax =   2.72242248367652E-04  1.37268205456589E-01
 cg2d: Sum(rhs),rhsMax =   2.72843567265230E-04  1.37273232112786E-01
 cg2d: Sum(rhs),rhsMax =   2.73443981658832E-04  1.37278263637178E-01
 cg2d: Sum(rhs),rhsMax =   2.74043490791245E-04  1.37283300020552E-01
 cg2d: Sum(rhs),rhsMax =   2.74642093872846E-04  1.37288341253686E-01
 cg2d: Sum(rhs),rhsMax =   2.75239790304076E-04  1.37293387327345E-01
 cg2d: Sum(rhs),rhsMax =   2.75836579437429E-04  1.37298438232279E-01
(PID.TID 0000.0001)      cg2d_init_res =   5.33812248164596E-04
(PID.TID 0000.0001)      cg2d_iters(min,last) =      -1      72
(PID.TID 0000.0001)      cg2d_last_res =   9.14380226540432E-08
(PID.TID 0000.0001) // =======================================================
(PID.TID 0000.0001) // Begin MONITOR dynamic field statistics
(PID.TID 0000.0001) // =======================================================
(PID.TID 0000.0001) %MON time_tsnumber                =                 20304
(PID.TID 0000.0001) %MON time_secondsf                =   2.4364800000000E+07
(PID.TID 0000.0001) %MON dynstat_eta_max              =   4.4632005503450E-02
(PID.TID 0000.0001) %MON dynstat_eta_min              =  -2.2901475727522E-02
(PID.TID 0000.0001) %MON dynstat_eta_mean             =  -1.8977571330023E-07
(PID.TID 0000.0001) %MON dynstat_eta_sd               =   1.6590790315935E-02
(PID.TID 0000.0001) %MON dynstat_eta_del2             =   1.7475985337550E-05
(PID.TID 0000.0001) %MON dynstat_uvel_max             =   3.0551838783721E-02
(PID.TID 0000.0001) %MON dynstat_uvel_min             =  -1.5157998068272E-02
(PID.TID 0000.0001) %MON dynstat_uvel_mean            =  -1.1660440667315E-07
(PID.TID 0000.0001) %MON dynstat_uvel_sd              =   6.8328953780383E-03
(PID.TID 0000.0001) %MON dynstat_uvel_del2            =   7.9537430907550E-06
(PID.TID 0000.0001) %MON dynstat_vvel_max             =   8.2439157961078E-02
(PID.TID 0000.0001) %MON dynstat_vvel_min             =  -3.0119926822864E-02
(PID.TID 0000.0001) %MON dynstat_vvel_mean            =  -1.7211284522267E-08
(PID.TID 0000.0001) %MON dynstat_vvel_sd              =   1.4355116087241E-02
(PID.TID 0000.0001) %MON dynstat_vvel_del2            =   7.2930427170674E-05
(PID.TID 0000.0001) %MON dynstat_wvel_max             =   7.1414963780990E-09
(PID.TID 0000.0001) %MON dynstat_wvel_min             =  -6.1317455040989E-09
(PID.TID 0000.0001) %MON dynstat_wvel_mean            =   2.2393801499574E-21
(PID.TID 0000.0001) %MON dynstat_wvel_sd              =   3.2664922612189E-09
(PID.TID 0000.0001) %MON dynstat_wvel_del2            =   9.7377381895749E-13
(PID.TID 0000.0001) %MON dynstat_theta_max            =   2.0000000000000E+01
(PID.TID 0000.0001) %MON dynstat_theta_min            =   2.0000000000000E+01
(PID.TID 0000.0001) %MON dynstat_theta_mean           =   2.0000000000000E+01
(PID.TID 0000.0001) %MON dynstat_theta_sd             =   0.0000000000000E+00
(PID.TID 0000.0001) %MON dynstat_theta_del2           =   0.0000000000000E+00
(PID.TID 0000.0001) %MON dynstat_salt_max             =   3.0000000000000E+01
(PID.TID 0000.0001) %MON dynstat_salt_min             =   3.0000000000000E+01
(PID.TID 0000.0001) %MON dynstat_salt_mean            =   3.0000000000000E+01
(PID.TID 0000.0001) %MON dynstat_salt_sd              =   0.0000000000000E+00
(PID.TID 0000.0001) %MON dynstat_salt_del2            =   0.0000000000000E+00
(PID.TID 0000.0001) %MON trAdv_CFL_u_max              =   1.8330553435656E-03
(PID.TID 0000.0001) %MON trAdv_CFL_v_max              =   4.9461862044412E-03
(PID.TID 0000.0001) %MON trAdv_CFL_w_max              =   1.7149035807874E-09
(PID.TID 0000.0001) %MON advcfl_uvel_max              =   1.8331103270232E-03
(PID.TID 0000.0001) %MON advcfl_vvel_max              =   4.9463494776647E-03
(PID.TID 0000.0001) %MON advcfl_wvel_max              =   3.4279182614875E-09
(PID.TID 0000.0001) %MON advcfl_W_hf_max              =   0.0000000000000E+00
(PID.TID 0000.0001) %MON pe_b_mean                    =   2.7002449119982E-07
(PID.TID 0000.0001) %MON ke_max                       =   3.3939556911387E-03
(PID.TID 0000.0001) %MON ke_mean                      =   1.2427259342680E-04
(PID.TID 0000.0001) %MON ke_vol                       =   7.2000000000000E+15
(PID.TID 0000.0001) %MON vort_r_min                   =  -1.4489074524894E-06
(PID.TID 0000.0001) %MON vort_r_max                   =   2.2789346031523E-06
(PID.TID 0000.0001) %MON vort_a_mean                  =   1.0600000000000E-04
(PID.TID 0000.0001) %MON vort_a_sd                    =   3.5360102573068E-06
(PID.TID 0000.0001) %MON vort_p_mean                  =   1.1130000000000E-04
(PID.TID 0000.0001) %MON vort_p_sd                    =   4.1152254349511E-05
(PID.TID 0000.0001) %MON surfExpan_theta_mean         =   4.4790877180074E-20
(PID.TID 0000.0001) %MON surfExpan_salt_mean          =   6.7186315770111E-20
(PID.TID 0000.0001) // =======================================================
(PID.TID 0000.0001) // End MONITOR dynamic field statistics
(PID.TID 0000.0001) // =======================================================
 cg2d: Sum(rhs),rhsMax =   2.76432460408462E-04  1.37303493959226E-01
 cg2d: Sum(rhs),rhsMax =   2.77027432770377E-04  1.37308554498912E-01
 cg2d: Sum(rhs),rhsMax =   2.77621495730082E-04  1.37313619842050E-01
 cg2d: Sum(rhs),rhsMax =   2.78214648660997E-04  1.37318689979340E-01
 cg2d: Sum(rhs),rhsMax =   2.78806890822298E-04  1.37323764901470E-01
 cg2d: Sum(rhs),rhsMax =   2.79398221743526E-04  1.37328844599114E-01
 cg2d: Sum(rhs),rhsMax =   2.79988640525876E-04  1.37333929062935E-01
 cg2d: Sum(rhs),rhsMax =   2.80578146751424E-04  1.37339018283584E-01
 cg2d: Sum(rhs),rhsMax =   2.81166739678359E-04  1.37344112251695E-01
 cg2d: Sum(rhs),rhsMax =   2.81754418642942E-04  1.37349210957894E-01
 cg2d: Sum(rhs),rhsMax =   2.82341183199393E-04  1.37354314392794E-01
 cg2d: Sum(rhs),rhsMax =   2.82927032577695E-04  1.37359422546993E-01
 cg2d: Sum(rhs),rhsMax =   2.83511966163309E-04  1.37364535411078E-01
 cg2d: Sum(rhs),rhsMax =   2.84095983329967E-04  1.37369652975622E-01
 cg2d: Sum(rhs),rhsMax =   2.84679083641798E-04  1.37374775231191E-01
 cg2d: Sum(rhs),rhsMax =   2.85261266317057E-04  1.37379902168331E-01
 cg2d: Sum(rhs),rhsMax =   2.85842530860786E-04  1.37385033777581E-01
 cg2d: Sum(rhs),rhsMax =   2.86422876748763E-04  1.37390170049464E-01
 cg2d: Sum(rhs),rhsMax =   2.87002303350391E-04  1.37395310974495E-01
 cg2d: Sum(rhs),rhsMax =   2.87580810009119E-04  1.37400456543171E-01
 cg2d: Sum(rhs),rhsMax =   2.88158396284384E-04  1.37405606745981E-01
 cg2d: Sum(rhs),rhsMax =   2.88735061579109E-04  1.37410761573400E-01
 cg2d: Sum(rhs),rhsMax =   2.89310805325679E-04  1.37415921015892E-01
 cg2d: Sum(rhs),rhsMax =   2.89885627058797E-04  1.37421085063906E-01
 cg2d: Sum(rhs),rhsMax =   2.90459526131007E-04  1.37426253707883E-01
 cg2d: Sum(rhs),rhsMax =   2.91032502060366E-04  1.37431426938248E-01
 cg2d: Sum(rhs),rhsMax =   2.91604554284882E-04  1.37436604745414E-01
 cg2d: Sum(rhs),rhsMax =   2.92175682273611E-04  1.37441787119785E-01
 cg2d: Sum(rhs),rhsMax =   2.92745885538881E-04  1.37446974051751E-01
 cg2d: Sum(rhs),rhsMax =   2.93315163650269E-04  1.37452165531687E-01
 cg2d: Sum(rhs),rhsMax =   2.93883515903281E-04  1.37457361549961E-01
 cg2d: Sum(rhs),rhsMax =   2.94450941915821E-04  1.37462562096927E-01
 cg2d: Sum(rhs),rhsMax =   2.95017441181633E-04  1.37467767162924E-01
 cg2d: Sum(rhs),rhsMax =   2.95583013235613E-04  1.37472976738284E-01
 cg2d: Sum(rhs),rhsMax =   2.96147657541141E-04  1.37478190813322E-01
 cg2d: Sum(rhs),rhsMax =   2.96711373665700E-04  1.37483409378345E-01
 cg2d: Sum(rhs),rhsMax =   2.97274161074065E-04  1.37488632423646E-01
 cg2d: Sum(rhs),rhsMax =   2.97836019324316E-04  1.37493859939506E-01
 cg2d: Sum(rhs),rhsMax =   2.98396947912378E-04  1.37499091916196E-01
 cg2d: Sum(rhs),rhsMax =   2.98956946441492E-04  1.37504328343972E-01
 cg2d: Sum(rhs),rhsMax =   2.99516014370785E-04  1.37509569213081E-01
 cg2d: Sum(rhs),rhsMax =   3.00074151266241E-04  1.37514814513757E-01
 cg2d: Sum(rhs),rhsMax =   3.00631356813014E-04  1.37520064236220E-01
 cg2d: Sum(rhs),rhsMax =   3.01187630447276E-04  1.37525318370684E-01
 cg2d: Sum(rhs),rhsMax =   3.01742971776996E-04  1.37530576907343E-01
 cg2d: Sum(rhs),rhsMax =   3.02297380276221E-04  1.37535839836388E-01
 cg2d: Sum(rhs),rhsMax =   3.02967573531395E-04  1.37541107036442E-01
 cg2d: Sum(rhs),rhsMax =   3.03636692628753E-04  1.37546378742264E-01
 cg2d: Sum(rhs),rhsMax =   3.04304845358375E-04  1.37551654798807E-01
 cg2d: Sum(rhs),rhsMax =   3.04972005164895E-04  1.37556935202448E-01
 cg2d: Sum(rhs),rhsMax =   3.05638180278489E-04  1.37562219948794E-01
 cg2d: Sum(rhs),rhsMax =   3.06303368575346E-04  1.37567509029565E-01
 cg2d: Sum(rhs),rhsMax =   3.06967567167575E-04  1.37572802433604E-01
 cg2d: Sum(rhs),rhsMax =   3.07630772218856E-04  1.37578100150980E-01
 cg2d: Sum(rhs),rhsMax =   3.08292981370022E-04  1.37583402171701E-01
 cg2d: Sum(rhs),rhsMax =   3.08954193678815E-04  1.37588708486034E-01
 cg2d: Sum(rhs),rhsMax =   3.09614408835727E-04  1.37594019084098E-01
 cg2d: Sum(rhs),rhsMax =   3.10273626670439E-04  1.37599333955954E-01
 cg2d: Sum(rhs),rhsMax =   3.10931846520431E-04  1.37604653091598E-01
 cg2d: Sum(rhs),rhsMax =   3.11589067613673E-04  1.37609976481021E-01
 cg2d: Sum(rhs),rhsMax =   3.12245288920882E-04  1.37615304114219E-01
 cg2d: Sum(rhs),rhsMax =   3.12900509377956E-04  1.37620635981191E-01
 cg2d: Sum(rhs),rhsMax =   3.13554727977266E-04  1.37625972071929E-01
 cg2d: Sum(rhs),rhsMax =   3.14207943873351E-04  1.37631312376418E-01
 cg2d: Sum(rhs),rhsMax =   3.14860156124264E-04  1.37636656884629E-01
 cg2d: Sum(rhs),rhsMax =   3.15511364018687E-04  1.37642005586517E-01
 cg2d: Sum(rhs),rhsMax =   3.16161566632145E-04  1.37647358472032E-01
 cg2d: Sum(rhs),rhsMax =   3.16810763177774E-04  1.37652715531107E-01
 cg2d: Sum(rhs),rhsMax =   3.17458952723665E-04  1.37658076753666E-01
 cg2d: Sum(rhs),rhsMax =   3.18106134405262E-04  1.37663442129621E-01
 cg2d: Sum(rhs),rhsMax =   3.18752307432732E-04  1.37668811648872E-01
 cg2d: Sum(rhs),rhsMax =   3.19397470956034E-04  1.37674185301306E-01
(PID.TID 0000.0001)      cg2d_init_res =   5.32796198181491E-04
(PID.TID 0000.0001)      cg2d_iters(min,last) =      -1      71
(PID.TID 0000.0001)      cg2d_last_res =   9.63329162779932E-08
(PID.TID 0000.0001) // =======================================================
(PID.TID 0000.0001) // Begin MONITOR dynamic field statistics
(PID.TID 0000.0001) // =======================================================
(PID.TID 0000.0001) %MON time_tsnumber                =                 20376
(PID.TID 0000.0001) %MON time_secondsf                =   2.4451200000000E+07
(PID.TID 0000.0001) %MON dynstat_eta_max              =   4.4723077138237E-02
(PID.TID 0000.0001) %MON dynstat_eta_min              =  -2.3040170905089E-02
(PID.TID 0000.0001) %MON dynstat_eta_mean             =  -2.2031595482393E-07
(PID.TID 0000.0001) %MON dynstat_eta_sd               =   1.6777239974869E-02
(PID.TID 0000.0001) %MON dynstat_eta_del2             =   1.7475881741066E-05
(PID.TID 0000.0001) %MON dynstat_uvel_max             =   3.0621014855596E-02
(PID.TID 0000.0001) %MON dynstat_uvel_min             =  -1.5212737144948E-02
(PID.TID 0000.0001) %MON dynstat_uvel_mean            =  -1.2581451879328E-07
(PID.TID 0000.0001) %MON dynstat_uvel_sd              =   6.8853962369767E-03
(PID.TID 0000.0001) %MON dynstat_uvel_del2            =   7.9906577872920E-06
(PID.TID 0000.0001) %MON dynstat_vvel_max             =   8.2643213057423E-02
(PID.TID 0000.0001) %MON dynstat_vvel_min             =  -2.9973040810383E-02
(PID.TID 0000.0001) %MON dynstat_vvel_mean            =  -1.6765407271255E-08
(PID.TID 0000.0001) %MON dynstat_vvel_sd              =   1.4383322855887E-02
(PID.TID 0000.0001) %MON dynstat_vvel_del2            =   7.2989630691907E-05
(PID.TID 0000.0001) %MON dynstat_wvel_max             =   6.8602803951944E-09
(PID.TID 0000.0001) %MON dynstat_wvel_min             =  -6.3262092313380E-09
(PID.TID 0000.0001) %MON dynstat_wvel_mean            =  -1.5273123684286E-21
(PID.TID 0000.0001) %MON dynstat_wvel_sd              =   3.2605307058489E-09
(PID.TID 0000.0001) %MON dynstat_wvel_del2            =   9.7318627360188E-13
(PID.TID 0000.0001) %MON dynstat_theta_max            =   2.0000000000000E+01
(PID.TID 0000.0001) %MON dynstat_theta_min            =   2.0000000000000E+01
(PID.TID 0000.0001) %MON dynstat_theta_mean           =   2.0000000000000E+01
(PID.TID 0000.0001) %MON dynstat_theta_sd             =   0.0000000000000E+00
(PID.TID 0000.0001) %MON dynstat_theta_del2           =   0.0000000000000E+00
(PID.TID 0000.0001) %MON dynstat_salt_max             =   3.0000000000000E+01
(PID.TID 0000.0001) %MON dynstat_salt_min             =   3.0000000000000E+01
(PID.TID 0000.0001) %MON dynstat_salt_mean            =   3.0000000000000E+01
(PID.TID 0000.0001) %MON dynstat_salt_sd              =   0.0000000000000E+00
(PID.TID 0000.0001) %MON dynstat_salt_del2            =   0.0000000000000E+00
(PID.TID 0000.0001) %MON trAdv_CFL_u_max              =   1.8372007358858E-03
(PID.TID 0000.0001) %MON trAdv_CFL_v_max              =   4.9584164135866E-03
(PID.TID 0000.0001) %MON trAdv_CFL_w_max              =   1.6474454654614E-09
(PID.TID 0000.0001) %MON advcfl_uvel_max              =   1.8372608913358E-03
(PID.TID 0000.0001) %MON advcfl_vvel_max              =   4.9585927834454E-03
(PID.TID 0000.0001) %MON advcfl_wvel_max              =   3.2929345896933E-09
(PID.TID 0000.0001) %MON advcfl_W_hf_max              =   0.0000000000000E+00
(PID.TID 0000.0001) %MON pe_b_mean                    =   2.7612774137966E-07
(PID.TID 0000.0001) %MON ke_max                       =   3.4105819636881E-03
(PID.TID 0000.0001) %MON ke_mean                      =   1.2502525671871E-04
(PID.TID 0000.0001) %MON ke_vol                       =   7.2000000000000E+15
(PID.TID 0000.0001) %MON vort_r_min                   =  -1.4494804881903E-06
(PID.TID 0000.0001) %MON vort_r_max                   =   2.2858353670930E-06
(PID.TID 0000.0001) %MON vort_a_mean                  =   1.0600000000000E-04
(PID.TID 0000.0001) %MON vort_a_sd                    =   3.5360533491835E-06
(PID.TID 0000.0001) %MON vort_p_mean                  =   1.1130000000000E-04
(PID.TID 0000.0001) %MON vort_p_sd                    =   4.1152299684026E-05
(PID.TID 0000.0001) %MON surfExpan_theta_mean         =  -3.0543705836155E-20
(PID.TID 0000.0001) %MON surfExpan_salt_mean          =  -4.5818400925176E-20
(PID.TID 0000.0001) // =======================================================
(PID.TID 0000.0001) // End MONITOR dynamic field statistics
(PID.TID 0000.0001) // =======================================================
 cg2d: Sum(rhs),rhsMax =   3.20041624020467E-04  1.37679563076799E-01
 cg2d: Sum(rhs),rhsMax =   3.20684765983298E-04  1.37684944965219E-01
 cg2d: Sum(rhs),rhsMax =   3.21326895864065E-04  1.37690330956421E-01
 cg2d: Sum(rhs),rhsMax =   3.21968012810732E-04  1.37695721040248E-01
 cg2d: Sum(rhs),rhsMax =   3.22608116052388E-04  1.37701115206534E-01
 cg2d: Sum(rhs),rhsMax =   3.23247204771577E-04  1.37706513445104E-01
 cg2d: Sum(rhs),rhsMax =   3.23885278175918E-04  1.37711915745768E-01
 cg2d: Sum(rhs),rhsMax =   3.24522335442151E-04  1.37717322098327E-01
 cg2d: Sum(rhs),rhsMax =   3.25158375692291E-04  1.37722732492571E-01
 cg2d: Sum(rhs),rhsMax =   3.25793398128061E-04  1.37728146918278E-01
 cg2d: Sum(rhs),rhsMax =   3.26427402030920E-04  1.37733565365216E-01
 cg2d: Sum(rhs),rhsMax =   3.27060386611620E-04  1.37738987823143E-01
 cg2d: Sum(rhs),rhsMax =   3.27692350947448E-04  1.37744414281802E-01
 cg2d: Sum(rhs),rhsMax =   3.28323294390500E-04  1.37749844730930E-01
 cg2d: Sum(rhs),rhsMax =   3.28953216046609E-04  1.37755279160251E-01
 cg2d: Sum(rhs),rhsMax =   3.29582115297074E-04  1.37760717559479E-01
 cg2d: Sum(rhs),rhsMax =   3.30209991250689E-04  1.37766159918316E-01
 cg2d: Sum(rhs),rhsMax =   3.30836843177775E-04  1.37771606226455E-01
 cg2d: Sum(rhs),rhsMax =   3.31462670321139E-04  1.37777056473578E-01
 cg2d: Sum(rhs),rhsMax =   3.32087471915821E-04  1.37782510649354E-01
 cg2d: Sum(rhs),rhsMax =   3.32711247191194E-04  1.37787968743443E-01
 cg2d: Sum(rhs),rhsMax =   3.33333995403680E-04  1.37793430745497E-01
 cg2d: Sum(rhs),rhsMax =   3.33955715857277E-04  1.37798896645151E-01
 cg2d: Sum(rhs),rhsMax =   3.34576407761892E-04  1.37804366432037E-01
 cg2d: Sum(rhs),rhsMax =   3.35196070411122E-04  1.37809840095770E-01
 cg2d: Sum(rhs),rhsMax =   3.35814703126512E-04  1.37815317625958E-01
 cg2d: Sum(rhs),rhsMax =   3.36432305046945E-04  1.37820799012198E-01
 cg2d: Sum(rhs),rhsMax =   3.37048875553737E-04  1.37826284244075E-01
 cg2d: Sum(rhs),rhsMax =   3.37664414031606E-04  1.37831773311166E-01
 cg2d: Sum(rhs),rhsMax =   3.38278919688192E-04  1.37837266203035E-01
 cg2d: Sum(rhs),rhsMax =   3.38892391709354E-04  1.37842762909238E-01
 cg2d: Sum(rhs),rhsMax =   3.39504829567053E-04  1.37848263419317E-01
 cg2d: Sum(rhs),rhsMax =   3.40116232452932E-04  1.37853767722809E-01
 cg2d: Sum(rhs),rhsMax =   3.40726599707863E-04  1.37859275809236E-01
 cg2d: Sum(rhs),rhsMax =   3.41335930839670E-04  1.37864787668112E-01
 cg2d: Sum(rhs),rhsMax =   3.41944224922302E-04  1.37870303288938E-01
 cg2d: Sum(rhs),rhsMax =   3.42551481419838E-04  1.37875822661210E-01
 cg2d: Sum(rhs),rhsMax =   3.43157699583704E-04  1.37881345774410E-01
 cg2d: Sum(rhs),rhsMax =   3.43762878820041E-04  1.37886872618008E-01
 cg2d: Sum(rhs),rhsMax =   3.44367018478248E-04  1.37892403181466E-01
 cg2d: Sum(rhs),rhsMax =   3.44970117997941E-04  1.37897937454239E-01
 cg2d: Sum(rhs),rhsMax =   3.45572176615511E-04  1.37903475425767E-01
 cg2d: Sum(rhs),rhsMax =   3.46173193756857E-04  1.37909017085482E-01
 cg2d: Sum(rhs),rhsMax =   3.46773168834695E-04  1.37914562422805E-01
 cg2d: Sum(rhs),rhsMax =   3.47372101080604E-04  1.37920111427148E-01
 cg2d: Sum(rhs),rhsMax =   3.47969990023245E-04  1.37925664087913E-01
 cg2d: Sum(rhs),rhsMax =   3.48566835055018E-04  1.37931220394490E-01
 cg2d: Sum(rhs),rhsMax =   3.49162635458208E-04  1.37936780336262E-01
 cg2d: Sum(rhs),rhsMax =   3.49757390819323E-04  1.37942343902600E-01
 cg2d: Sum(rhs),rhsMax =   3.50351100486862E-04  1.37947911082864E-01
 cg2d: Sum(rhs),rhsMax =   3.50943763717569E-04  1.37953481866408E-01
 cg2d: Sum(rhs),rhsMax =   3.51535380110019E-04  1.37959056242571E-01
 cg2d: Sum(rhs),rhsMax =   3.52125949127792E-04  1.37964634200687E-01
 cg2d: Sum(rhs),rhsMax =   3.52715470052331E-04  1.37970215730078E-01
 cg2d: Sum(rhs),rhsMax =   3.53303942484221E-04  1.37975800820055E-01
 cg2d: Sum(rhs),rhsMax =   3.53891365757789E-04  1.37981389459921E-01
 cg2d: Sum(rhs),rhsMax =   3.54477739422299E-04  1.37986981638968E-01
 cg2d: Sum(rhs),rhsMax =   3.55063062908268E-04  1.37992577346479E-01
 cg2d: Sum(rhs),rhsMax =   3.55647335630790E-04  1.37998176571727E-01
 cg2d: Sum(rhs),rhsMax =   3.56230557163178E-04  1.38003779303976E-01
 cg2d: Sum(rhs),rhsMax =   3.56812726861807E-04  1.38009385532479E-01
 cg2d: Sum(rhs),rhsMax =   3.57393844325299E-04  1.38014995246482E-01
 cg2d: Sum(rhs),rhsMax =   3.57973909096448E-04  1.38020608435217E-01
 cg2d: Sum(rhs),rhsMax =   3.58552920667226E-04  1.38026225087909E-01
 cg2d: Sum(rhs),rhsMax =   3.59130878497161E-04  1.38031845193774E-01
 cg2d: Sum(rhs),rhsMax =   3.59707782009553E-04  1.38037468742019E-01
 cg2d: Sum(rhs),rhsMax =   3.60283630885579E-04  1.38043095721839E-01
 cg2d: Sum(rhs),rhsMax =   3.60858424714366E-04  1.38048726122419E-01
 cg2d: Sum(rhs),rhsMax =   3.61432162905613E-04  1.38054359932940E-01
 cg2d: Sum(rhs),rhsMax =   3.62004845044773E-04  1.38059997142567E-01
 cg2d: Sum(rhs),rhsMax =   3.62576470743923E-04  1.38065637740459E-01
 cg2d: Sum(rhs),rhsMax =   3.63147039454611E-04  1.38071281715765E-01
(PID.TID 0000.0001)      cg2d_init_res =   5.31052766684274E-04
(PID.TID 0000.0001)      cg2d_iters(min,last) =      -1      71
(PID.TID 0000.0001)      cg2d_last_res =   8.51727857528227E-08
(PID.TID 0000.0001) // =======================================================
(PID.TID 0000.0001) // Begin MONITOR dynamic field statistics
(PID.TID 0000.0001) // =======================================================
(PID.TID 0000.0001) %MON time_tsnumber                =                 20448
(PID.TID 0000.0001) %MON time_secondsf                =   2.4537600000000E+07
(PID.TID 0000.0001) %MON dynstat_eta_max              =   4.4850031524278E-02
(PID.TID 0000.0001) %MON dynstat_eta_min              =  -2.3156794878645E-02
(PID.TID 0000.0001) %MON dynstat_eta_mean             =  -2.5110432194085E-07
(PID.TID 0000.0001) %MON dynstat_eta_sd               =   1.6963331894023E-02
(PID.TID 0000.0001) %MON dynstat_eta_del2             =   1.7477953810731E-05
(PID.TID 0000.0001) %MON dynstat_uvel_max             =   3.0696082407531E-02
(PID.TID 0000.0001) %MON dynstat_uvel_min             =  -1.5271846474734E-02
(PID.TID 0000.0001) %MON dynstat_uvel_mean            =  -1.3344818663234E-07
(PID.TID 0000.0001) %MON dynstat_uvel_sd              =   6.9341086264296E-03
(PID.TID 0000.0001) %MON dynstat_uvel_del2            =   8.0252543524509E-06
(PID.TID 0000.0001) %MON dynstat_vvel_max             =   8.2861973748725E-02
(PID.TID 0000.0001) %MON dynstat_vvel_min             =  -2.9830797003699E-02
(PID.TID 0000.0001) %MON dynstat_vvel_mean            =  -1.6213363080767E-08
(PID.TID 0000.0001) %MON dynstat_vvel_sd              =   1.4414482727506E-02
(PID.TID 0000.0001) %MON dynstat_vvel_del2            =   7.3061591648573E-05
(PID.TID 0000.0001) %MON dynstat_wvel_max             =   6.5837690800254E-09
(PID.TID 0000.0001) %MON dynstat_wvel_min             =  -6.5081619861303E-09
(PID.TID 0000.0001) %MON dynstat_wvel_mean            =   5.3857561649945E-21
(PID.TID 0000.0001) %MON dynstat_wvel_sd              =   3.2532468366936E-09
(PID.TID 0000.0001) %MON dynstat_wvel_del2            =   9.7212666199571E-13
(PID.TID 0000.0001) %MON dynstat_theta_max            =   2.0000000000000E+01
(PID.TID 0000.0001) %MON dynstat_theta_min            =   2.0000000000000E+01
(PID.TID 0000.0001) %MON dynstat_theta_mean           =   2.0000000000000E+01
(PID.TID 0000.0001) %MON dynstat_theta_sd             =   0.0000000000000E+00
(PID.TID 0000.0001) %MON dynstat_theta_del2           =   0.0000000000000E+00
(PID.TID 0000.0001) %MON dynstat_salt_max             =   3.0000000000000E+01
(PID.TID 0000.0001) %MON dynstat_salt_min             =   3.0000000000000E+01
(PID.TID 0000.0001) %MON dynstat_salt_mean            =   3.0000000000000E+01
(PID.TID 0000.0001) %MON dynstat_salt_sd              =   0.0000000000000E+00
(PID.TID 0000.0001) %MON dynstat_salt_del2            =   0.0000000000000E+00
(PID.TID 0000.0001) %MON trAdv_CFL_u_max              =   1.8417001449253E-03
(PID.TID 0000.0001) %MON trAdv_CFL_v_max              =   4.9715306477632E-03
(PID.TID 0000.0001) %MON trAdv_CFL_w_max              =   1.5809395637247E-09
(PID.TID 0000.0001) %MON advcfl_uvel_max              =   1.8417649444518E-03
(PID.TID 0000.0001) %MON advcfl_vvel_max              =   4.9717184249235E-03
(PID.TID 0000.0001) %MON advcfl_wvel_max              =   3.1602091584122E-09
(PID.TID 0000.0001) %MON advcfl_W_hf_max              =   0.0000000000000E+00
(PID.TID 0000.0001) %MON pe_b_mean                    =   2.8228729105863E-07
(PID.TID 0000.0001) %MON ke_max                       =   3.4284552471811E-03
(PID.TID 0000.0001) %MON ke_mean                      =   1.2579742759170E-04
(PID.TID 0000.0001) %MON ke_vol                       =   7.2000000000000E+15
(PID.TID 0000.0001) %MON vort_r_min                   =  -1.4502262741426E-06
(PID.TID 0000.0001) %MON vort_r_max                   =   2.2930341098989E-06
(PID.TID 0000.0001) %MON vort_a_mean                  =   1.0600000000000E-04
(PID.TID 0000.0001) %MON vort_a_sd                    =   3.5361017456497E-06
(PID.TID 0000.0001) %MON vort_p_mean                  =   1.1130000000000E-04
(PID.TID 0000.0001) %MON vort_p_sd                    =   4.1152336778126E-05
(PID.TID 0000.0001) %MON surfExpan_theta_mean         =   1.0771396120725E-19
(PID.TID 0000.0001) %MON surfExpan_salt_mean          =   1.6157157340441E-19
(PID.TID 0000.0001) // =======================================================
(PID.TID 0000.0001) // End MONITOR dynamic field statistics
(PID.TID 0000.0001) // =======================================================
 cg2d: Sum(rhs),rhsMax =   3.63716550833887E-04  1.38076929057625E-01
 cg2d: Sum(rhs),rhsMax =   3.64285004552412E-04  1.38082579755169E-01
 cg2d: Sum(rhs),rhsMax =   3.64963847665134E-04  1.38088233639055E-01
 cg2d: Sum(rhs),rhsMax =   3.65641654128647E-04  1.38093891037670E-01
 cg2d: Sum(rhs),rhsMax =   3.66318232166023E-04  1.38099551747467E-01
 cg2d: Sum(rhs),rhsMax =   3.66993654165218E-04  1.38105215763566E-01
 cg2d: Sum(rhs),rhsMax =   3.67667932898450E-04  1.38110883081694E-01
 cg2d: Sum(rhs),rhsMax =   3.68341067475373E-04  1.38116553690400E-01
 cg2d: Sum(rhs),rhsMax =   3.69013053549077E-04  1.38122227578058E-01
 cg2d: Sum(rhs),rhsMax =   3.69683886551383E-04  1.38127904733712E-01
 cg2d: Sum(rhs),rhsMax =   3.70353563872305E-04  1.38133585146661E-01
 cg2d: Sum(rhs),rhsMax =   3.71022084413222E-04  1.38139268806155E-01
 cg2d: Sum(rhs),rhsMax =   3.71689448249964E-04  1.38144955701294E-01
 cg2d: Sum(rhs),rhsMax =   3.72355655681277E-04  1.38150645821059E-01
 cg2d: Sum(rhs),rhsMax =   3.73020706288832E-04  1.38156339154387E-01
 cg2d: Sum(rhs),rhsMax =   3.73684599292659E-04  1.38162035690228E-01
 cg2d: Sum(rhs),rhsMax =   3.74347333875600E-04  1.38167735417560E-01
 cg2d: Sum(rhs),rhsMax =   3.75008908980385E-04  1.38173438325375E-01
 cg2d: Sum(rhs),rhsMax =   3.75669323611837E-04  1.38179144402662E-01
 cg2d: Sum(rhs),rhsMax =   3.76328577069091E-04  1.38184853638400E-01
 cg2d: Sum(rhs),rhsMax =   3.76986668522298E-04  1.38190566021549E-01
 cg2d: Sum(rhs),rhsMax =   3.77643597294988E-04  1.38196281541056E-01
 cg2d: Sum(rhs),rhsMax =   3.78299362551025E-04  1.38202000185861E-01
 cg2d: Sum(rhs),rhsMax =   3.78953963698346E-04  1.38207721944892E-01
 cg2d: Sum(rhs),rhsMax =   3.79607399742892E-04  1.38213446807071E-01
 cg2d: Sum(rhs),rhsMax =   3.80259669956690E-04  1.38219174761313E-01
 cg2d: Sum(rhs),rhsMax =   3.80910773621262E-04  1.38224905796525E-01
 cg2d: Sum(rhs),rhsMax =   3.81560709831203E-04  1.38230639901601E-01
 cg2d: Sum(rhs),rhsMax =   3.82209477801420E-04  1.38236377065430E-01
 cg2d: Sum(rhs),rhsMax =   3.82857076784268E-04  1.38242117276890E-01
 cg2d: Sum(rhs),rhsMax =   3.83503505956317E-04  1.38247860524852E-01
 cg2d: Sum(rhs),rhsMax =   3.84148764584286E-04  1.38253606798176E-01
 cg2d: Sum(rhs),rhsMax =   3.84792851771200E-04  1.38259356085716E-01
 cg2d: Sum(rhs),rhsMax =   3.85435766853102E-04  1.38265108376318E-01
 cg2d: Sum(rhs),rhsMax =   3.86077508931172E-04  1.38270863658818E-01
 cg2d: Sum(rhs),rhsMax =   3.86718077251716E-04  1.38276621922044E-01
 cg2d: Sum(rhs),rhsMax =   3.87357470977550E-04  1.38282383154815E-01
 cg2d: Sum(rhs),rhsMax =   3.87995689224313E-04  1.38288147345944E-01
 cg2d: Sum(rhs),rhsMax =   3.88632731339940E-04  1.38293914484232E-01
 cg2d: Sum(rhs),rhsMax =   3.89268596411105E-04  1.38299684558473E-01
 cg2d: Sum(rhs),rhsMax =   3.89903283713400E-04  1.38305457557455E-01
 cg2d: Sum(rhs),rhsMax =   3.90536792261642E-04  1.38311233469953E-01
 cg2d: Sum(rhs),rhsMax =   3.91169121367102E-04  1.38317012284737E-01
 cg2d: Sum(rhs),rhsMax =   3.91800270238702E-04  1.38322793990569E-01
 cg2d: Sum(rhs),rhsMax =   3.92430237907254E-04  1.38328578576201E-01
 cg2d: Sum(rhs),rhsMax =   3.93195353952372E-04  1.38334366001051E-01
 cg2d: Sum(rhs),rhsMax =   3.93958809763504E-04  1.38340156331389E-01
 cg2d: Sum(rhs),rhsMax =   3.94720918514484E-04  1.38345949496125E-01
 cg2d: Sum(rhs),rhsMax =   3.95481573172303E-04  1.38351745496095E-01
 cg2d: Sum(rhs),rhsMax =   3.96240788284262E-04  1.38357544318643E-01
 cg2d: Sum(rhs),rhsMax =   3.96998557114234E-04  1.38363345953881E-01
 cg2d: Sum(rhs),rhsMax =   3.97754875827266E-04  1.38369150388823E-01
 cg2d: Sum(rhs),rhsMax =   3.98509739032465E-04  1.38374957612943E-01
 cg2d: Sum(rhs),rhsMax =   3.99263142776804E-04  1.38380767615004E-01
 cg2d: Sum(rhs),rhsMax =   4.00015084187731E-04  1.38386580384101E-01
 cg2d: Sum(rhs),rhsMax =   4.00765561322663E-04  1.38392395908923E-01
 cg2d: Sum(rhs),rhsMax =   4.01646707389617E-04  1.38398214370502E-01
 cg2d: Sum(rhs),rhsMax =   4.02526237168393E-04  1.38404035384359E-01
 cg2d: Sum(rhs),rhsMax =   4.03403912126176E-04  1.38409859111976E-01
 cg2d: Sum(rhs),rhsMax =   4.04279803472680E-04  1.38415685551644E-01
 cg2d: Sum(rhs),rhsMax =   4.05153912817585E-04  1.38421514690800E-01
 cg2d: Sum(rhs),rhsMax =   4.06026234687392E-04  1.38427346516675E-01
 cg2d: Sum(rhs),rhsMax =   4.06896763524246E-04  1.38433181017608E-01
 cg2d: Sum(rhs),rhsMax =   4.07765493923288E-04  1.38439018182532E-01
 cg2d: Sum(rhs),rhsMax =   4.08632420717822E-04  1.38444858000477E-01
 cg2d: Sum(rhs),rhsMax =   4.09497538917495E-04  1.38450700460302E-01
 cg2d: Sum(rhs),rhsMax =   4.10360843848427E-04  1.38456545550650E-01
 cg2d: Sum(rhs),rhsMax =   4.11561192167386E-04  1.38462393420023E-01
 cg2d: Sum(rhs),rhsMax =   4.12758411923899E-04  1.38468243715301E-01
 cg2d: Sum(rhs),rhsMax =   4.13952458682693E-04  1.38474096631092E-01
 cg2d: Sum(rhs),rhsMax =   4.15143297900975E-04  1.38479952148364E-01
 cg2d: Sum(rhs),rhsMax =   4.16330902686266E-04  1.38485810239204E-01
(PID.TID 0000.0001)      cg2d_init_res =   5.28549836692380E-04
(PID.TID 0000.0001)      cg2d_iters(min,last) =      -1      66
(PID.TID 0000.0001)      cg2d_last_res =   9.74582278588357E-08
(PID.TID 0000.0001) // =======================================================
(PID.TID 0000.0001) // Begin MONITOR dynamic field statistics
(PID.TID 0000.0001) // =======================================================
(PID.TID 0000.0001) %MON time_tsnumber                =                 20520
(PID.TID 0000.0001) %MON time_secondsf                =   2.4624000000000E+07
(PID.TID 0000.0001) %MON dynstat_eta_max              =   4.5011715396228E-02
(PID.TID 0000.0001) %MON dynstat_eta_min              =  -2.3249965205000E-02
(PID.TID 0000.0001) %MON dynstat_eta_mean             =  -2.8911193071512E-07
(PID.TID 0000.0001) %MON dynstat_eta_sd               =   1.7146806293159E-02
(PID.TID 0000.0001) %MON dynstat_eta_del2             =   1.7482224630131E-05
(PID.TID 0000.0001) %MON dynstat_uvel_max             =   3.0776371221285E-02
(PID.TID 0000.0001) %MON dynstat_uvel_min             =  -1.5334630483846E-02
(PID.TID 0000.0001) %MON dynstat_uvel_mean            =  -1.3941344965856E-07
(PID.TID 0000.0001) %MON dynstat_uvel_sd              =   6.9784622940463E-03
(PID.TID 0000.0001) %MON dynstat_uvel_del2            =   8.0570757121430E-06
(PID.TID 0000.0001) %MON dynstat_vvel_max             =   8.3093311879187E-02
(PID.TID 0000.0001) %MON dynstat_vvel_min             =  -2.9694879222112E-02
(PID.TID 0000.0001) %MON dynstat_vvel_mean            =  -1.5562672807681E-08
(PID.TID 0000.0001) %MON dynstat_vvel_sd              =   1.4448265331071E-02
(PID.TID 0000.0001) %MON dynstat_vvel_del2            =   7.3145577937634E-05
(PID.TID 0000.0001) %MON dynstat_wvel_max             =   6.3168442145979E-09
(PID.TID 0000.0001) %MON dynstat_wvel_min             =  -6.6875056171557E-09
(PID.TID 0000.0001) %MON dynstat_wvel_mean            =  -8.2191153044025E-22
(PID.TID 0000.0001) %MON dynstat_wvel_sd              =   3.2445190551885E-09
(PID.TID 0000.0001) %MON dynstat_wvel_del2            =   9.7542965025019E-13
(PID.TID 0000.0001) %MON dynstat_theta_max            =   2.0000000000000E+01
(PID.TID 0000.0001) %MON dynstat_theta_min            =   2.0000000000000E+01
(PID.TID 0000.0001) %MON dynstat_theta_mean           =   2.0000000000000E+01
(PID.TID 0000.0001) %MON dynstat_theta_sd             =   0.0000000000000E+00
(PID.TID 0000.0001) %MON dynstat_theta_del2           =   0.0000000000000E+00
(PID.TID 0000.0001) %MON dynstat_salt_max             =   3.0000000000000E+01
(PID.TID 0000.0001) %MON dynstat_salt_min             =   3.0000000000000E+01
(PID.TID 0000.0001) %MON dynstat_salt_mean            =   3.0000000000000E+01
(PID.TID 0000.0001) %MON dynstat_salt_sd              =   0.0000000000000E+00
(PID.TID 0000.0001) %MON dynstat_salt_del2            =   0.0000000000000E+00
(PID.TID 0000.0001) %MON trAdv_CFL_u_max              =   1.8465134168140E-03
(PID.TID 0000.0001) %MON trAdv_CFL_v_max              =   4.9854013798452E-03
(PID.TID 0000.0001) %MON trAdv_CFL_w_max              =   1.5167567232857E-09
(PID.TID 0000.0001) %MON advcfl_uvel_max              =   1.8465822732771E-03
(PID.TID 0000.0001) %MON advcfl_vvel_max              =   4.9855987127512E-03
(PID.TID 0000.0001) %MON advcfl_wvel_max              =   3.2100026962347E-09
(PID.TID 0000.0001) %MON advcfl_W_hf_max              =   0.0000000000000E+00
(PID.TID 0000.0001) %MON pe_b_mean                    =   2.8842671978207E-07
(PID.TID 0000.0001) %MON ke_max                       =   3.4477498581597E-03
(PID.TID 0000.0001) %MON ke_mean                      =   1.2658022598401E-04
(PID.TID 0000.0001) %MON ke_vol                       =   7.2000000000000E+15
(PID.TID 0000.0001) %MON vort_r_min                   =  -1.4511481983163E-06
(PID.TID 0000.0001) %MON vort_r_max                   =   2.3004556381510E-06
(PID.TID 0000.0001) %MON vort_a_mean                  =   1.0600000000000E-04
(PID.TID 0000.0001) %MON vort_a_sd                    =   3.5361549568754E-06
(PID.TID 0000.0001) %MON vort_p_mean                  =   1.1130000000000E-04
(PID.TID 0000.0001) %MON vort_p_sd                    =   4.1152365245042E-05
(PID.TID 0000.0001) %MON surfExpan_theta_mean         =  -1.6436235089006E-20
(PID.TID 0000.0001) %MON surfExpan_salt_mean          =  -2.4654668430281E-20
(PID.TID 0000.0001) // =======================================================
(PID.TID 0000.0001) // End MONITOR dynamic field statistics
(PID.TID 0000.0001) // =======================================================
 cg2d: Sum(rhs),rhsMax =   4.17515261168909E-04  1.38491670888519E-01
 cg2d: Sum(rhs),rhsMax =   4.18696368414831E-04  1.38497534085157E-01
 cg2d: Sum(rhs),rhsMax =   4.19874218740289E-04  1.38503399818894E-01
 cg2d: Sum(rhs),rhsMax =   4.21048802530341E-04  1.38509268079473E-01
 cg2d: Sum(rhs),rhsMax =   4.22343548334315E-04  1.38515138706833E-01
 cg2d: Sum(rhs),rhsMax =   4.23634243566304E-04  1.38521011977160E-01
 cg2d: Sum(rhs),rhsMax =   4.24920961268926E-04  1.38526887754096E-01
 cg2d: Sum(rhs),rhsMax =   4.26203635182666E-04  1.38532766019381E-01
 cg2d: Sum(rhs),rhsMax =   4.27482249419625E-04  1.38538646753757E-01
 cg2d: Sum(rhs),rhsMax =   4.28756789517617E-04  1.38544529944596E-01
 cg2d: Sum(rhs),rhsMax =   4.30027245544393E-04  1.38550415580516E-01
 cg2d: Sum(rhs),rhsMax =   4.31293606464808E-04  1.38556303650728E-01
 cg2d: Sum(rhs),rhsMax =   4.32555859578108E-04  1.38562194144200E-01
 cg2d: Sum(rhs),rhsMax =   4.33813990355517E-04  1.38568087049676E-01
 cg2d: Sum(rhs),rhsMax =   4.35067983676193E-04  1.38573982355619E-01
 cg2d: Sum(rhs),rhsMax =   4.36649867849513E-04  1.38579880116338E-01
 cg2d: Sum(rhs),rhsMax =   4.38225418477925E-04  1.38585780195507E-01
 cg2d: Sum(rhs),rhsMax =   4.39794456443353E-04  1.38591682644569E-01
 cg2d: Sum(rhs),rhsMax =   4.41356967485678E-04  1.38597587456092E-01
 cg2d: Sum(rhs),rhsMax =   4.42992410076965E-04  1.38603494516122E-01
 cg2d: Sum(rhs),rhsMax =   4.44620652348534E-04  1.38609403984300E-01
 cg2d: Sum(rhs),rhsMax =   4.46241681622843E-04  1.38615315781779E-01
 cg2d: Sum(rhs),rhsMax =   4.47855482150278E-04  1.38621229884338E-01
 cg2d: Sum(rhs),rhsMax =   4.49462045299576E-04  1.38627146281267E-01
 cg2d: Sum(rhs),rhsMax =   4.51061357887768E-04  1.38633064961522E-01
 cg2d: Sum(rhs),rhsMax =   4.52653406567776E-04  1.38638985913889E-01
 cg2d: Sum(rhs),rhsMax =   4.54238178939423E-04  1.38644909127046E-01
 cg2d: Sum(rhs),rhsMax =   4.55815662531824E-04  1.38650834589391E-01
 cg2d: Sum(rhs),rhsMax =   4.57385844861593E-04  1.38656762289204E-01
 cg2d: Sum(rhs),rhsMax =   4.58948713917680E-04  1.38662692214760E-01
 cg2d: Sum(rhs),rhsMax =   4.60504257200780E-04  1.38668624354353E-01
 cg2d: Sum(rhs),rhsMax =   4.62052462290316E-04  1.38674558696286E-01
 cg2d: Sum(rhs),rhsMax =   4.63593317057397E-04  1.38680495228868E-01
 cg2d: Sum(rhs),rhsMax =   4.65126809203147E-04  1.38686433940402E-01
 cg2d: Sum(rhs),rhsMax =   4.66652926564948E-04  1.38692374819189E-01
 cg2d: Sum(rhs),rhsMax =   4.68171656972379E-04  1.38698317853524E-01
 cg2d: Sum(rhs),rhsMax =   4.69682988396712E-04  1.38704263031693E-01
 cg2d: Sum(rhs),rhsMax =   4.71186908664561E-04  1.38710210341976E-01
 cg2d: Sum(rhs),rhsMax =   4.72683405770410E-04  1.38716159772643E-01
 cg2d: Sum(rhs),rhsMax =   4.74172467808579E-04  1.38722111311954E-01
 cg2d: Sum(rhs),rhsMax =   4.75654082646702E-04  1.38728064948167E-01
 cg2d: Sum(rhs),rhsMax =   4.77128238527380E-04  1.38734020669529E-01
 cg2d: Sum(rhs),rhsMax =   4.78594923538103E-04  1.38739978464282E-01
 cg2d: Sum(rhs),rhsMax =   4.80054125751734E-04  1.38745938320664E-01
 cg2d: Sum(rhs),rhsMax =   4.81505833441512E-04  1.38751900226905E-01
 cg2d: Sum(rhs),rhsMax =   4.82950034767556E-04  1.38757864171230E-01
 cg2d: Sum(rhs),rhsMax =   4.84386718093013E-04  1.38763830141860E-01
 cg2d: Sum(rhs),rhsMax =   4.85815871746901E-04  1.38769798127008E-01
 cg2d: Sum(rhs),rhsMax =   4.87237484022207E-04  1.38775768114880E-01
 cg2d: Sum(rhs),rhsMax =   4.88651543443377E-04  1.38781740093678E-01
 cg2d: Sum(rhs),rhsMax =   4.90058038315116E-04  1.38787714051596E-01
 cg2d: Sum(rhs),rhsMax =   4.91456957200396E-04  1.38793689976821E-01
 cg2d: Sum(rhs),rhsMax =   4.92848288572718E-04  1.38799667857535E-01
 cg2d: Sum(rhs),rhsMax =   4.94232021116790E-04  1.38805647681915E-01
 cg2d: Sum(rhs),rhsMax =   4.95608143266519E-04  1.38811629438131E-01
 cg2d: Sum(rhs),rhsMax =   4.96976643844887E-04  1.38817613114345E-01
 cg2d: Sum(rhs),rhsMax =   4.98337511389058E-04  1.38823598698717E-01
 cg2d: Sum(rhs),rhsMax =   4.99737411861169E-04  1.38829586012521E-01
 cg2d: Sum(rhs),rhsMax =   5.01129248909190E-04  1.38835575362159E-01
 cg2d: Sum(rhs),rhsMax =   5.02512972425954E-04  1.38841566603868E-01
 cg2d: Sum(rhs),rhsMax =   5.03888587639748E-04  1.38847559705277E-01
 cg2d: Sum(rhs),rhsMax =   5.05256088874759E-04  1.38853554654488E-01
 cg2d: Sum(rhs),rhsMax =   5.06615465724751E-04  1.38859551439724E-01
 cg2d: Sum(rhs),rhsMax =   5.07966708053101E-04  1.38865550049429E-01
 cg2d: Sum(rhs),rhsMax =   5.09309807283908E-04  1.38871550472131E-01
 cg2d: Sum(rhs),rhsMax =   5.10644755442641E-04  1.38877552696187E-01
 cg2d: Sum(rhs),rhsMax =   5.11971544113624E-04  1.38883556709780E-01
 cg2d: Sum(rhs),rhsMax =   5.13290164687498E-04  1.38889562500987E-01
 cg2d: Sum(rhs),rhsMax =   5.14600608646974E-04  1.38895570057846E-01
 cg2d: Sum(rhs),rhsMax =   5.15902867212455E-04  1.38901579368387E-01
 cg2d: Sum(rhs),rhsMax =   5.17196932093012E-04  1.38907590420662E-01
 cg2d: Sum(rhs),rhsMax =   5.18482794829386E-04  1.38913603202741E-01
(PID.TID 0000.0001)      cg2d_init_res =   5.25281280333739E-04
(PID.TID 0000.0001)      cg2d_iters(min,last) =      -1      60
(PID.TID 0000.0001)      cg2d_last_res =   9.39105388123428E-08
(PID.TID 0000.0001) // =======================================================
(PID.TID 0000.0001) // Begin MONITOR dynamic field statistics
(PID.TID 0000.0001) // =======================================================
(PID.TID 0000.0001) %MON time_tsnumber                =                 20592
(PID.TID 0000.0001) %MON time_secondsf                =   2.4710400000000E+07
(PID.TID 0000.0001) %MON dynstat_eta_max              =   4.5206493971461E-02
(PID.TID 0000.0001) %MON dynstat_eta_min              =  -2.3318609395392E-02
(PID.TID 0000.0001) %MON dynstat_eta_mean             =  -3.6102461313434E-07
(PID.TID 0000.0001) %MON dynstat_eta_sd               =   1.7325504196435E-02
(PID.TID 0000.0001) %MON dynstat_eta_del2             =   1.7488691302874E-05
(PID.TID 0000.0001) %MON dynstat_uvel_max             =   3.0861144168191E-02
(PID.TID 0000.0001) %MON dynstat_uvel_min             =  -1.5400349515502E-02
(PID.TID 0000.0001) %MON dynstat_uvel_mean            =  -1.4364370720830E-07
(PID.TID 0000.0001) %MON dynstat_uvel_sd              =   7.0179535733681E-03
(PID.TID 0000.0001) %MON dynstat_uvel_del2            =   8.0857334054042E-06
(PID.TID 0000.0001) %MON dynstat_vvel_max             =   8.3334917833027E-02
(PID.TID 0000.0001) %MON dynstat_vvel_min             =  -2.9566918578594E-02
(PID.TID 0000.0001) %MON dynstat_vvel_mean            =  -1.4821854600756E-08
(PID.TID 0000.0001) %MON dynstat_vvel_sd              =   1.4484302463710E-02
(PID.TID 0000.0001) %MON dynstat_vvel_del2            =   7.3240697491270E-05
(PID.TID 0000.0001) %MON dynstat_wvel_max             =   6.0972620196117E-09
(PID.TID 0000.0001) %MON dynstat_wvel_min             =  -6.8562120295246E-09
(PID.TID 0000.0001) %MON dynstat_wvel_mean            =   1.0801966096905E-21
(PID.TID 0000.0001) %MON dynstat_wvel_sd              =   3.2342991364594E-09
(PID.TID 0000.0001) %MON dynstat_wvel_del2            =   9.8626980778744E-13
(PID.TID 0000.0001) %MON dynstat_theta_max            =   2.0000000000000E+01
(PID.TID 0000.0001) %MON dynstat_theta_min            =   2.0000000000000E+01
(PID.TID 0000.0001) %MON dynstat_theta_mean           =   2.0000000000000E+01
(PID.TID 0000.0001) %MON dynstat_theta_sd             =   0.0000000000000E+00
(PID.TID 0000.0001) %MON dynstat_theta_del2           =   0.0000000000000E+00
(PID.TID 0000.0001) %MON dynstat_salt_max             =   3.0000000000000E+01
(PID.TID 0000.0001) %MON dynstat_salt_min             =   3.0000000000000E+01
(PID.TID 0000.0001) %MON dynstat_salt_mean            =   3.0000000000000E+01
(PID.TID 0000.0001) %MON dynstat_salt_sd              =   0.0000000000000E+00
(PID.TID 0000.0001) %MON dynstat_salt_del2            =   0.0000000000000E+00
(PID.TID 0000.0001) %MON trAdv_CFL_u_max              =   1.8515963765117E-03
(PID.TID 0000.0001) %MON trAdv_CFL_v_max              =   4.9998901733520E-03
(PID.TID 0000.0001) %MON trAdv_CFL_w_max              =   1.4639861455536E-09
(PID.TID 0000.0001) %MON advcfl_uvel_max              =   1.8516686500914E-03
(PID.TID 0000.0001) %MON advcfl_vvel_max              =   5.0000950699816E-03
(PID.TID 0000.0001) %MON advcfl_wvel_max              =   3.2909817741718E-09
(PID.TID 0000.0001) %MON advcfl_W_hf_max              =   0.0000000000000E+00
(PID.TID 0000.0001) %MON pe_b_mean                    =   2.9446980697098E-07
(PID.TID 0000.0001) %MON ke_max                       =   3.4679973312861E-03
(PID.TID 0000.0001) %MON ke_mean                      =   1.2736462270086E-04
(PID.TID 0000.0001) %MON ke_vol                       =   7.2000000000000E+15
(PID.TID 0000.0001) %MON vort_r_min                   =  -1.4522474800120E-06
(PID.TID 0000.0001) %MON vort_r_max                   =   2.3080212928929E-06
(PID.TID 0000.0001) %MON vort_a_mean                  =   1.0600000000000E-04
(PID.TID 0000.0001) %MON vort_a_sd                    =   3.5362124297142E-06
(PID.TID 0000.0001) %MON vort_p_mean                  =   1.1130000000000E-04
(PID.TID 0000.0001) %MON vort_p_sd                    =   4.1152384789216E-05
(PID.TID 0000.0001) %MON surfExpan_theta_mean         =   2.1605867095431E-20
(PID.TID 0000.0001) %MON surfExpan_salt_mean          =   3.2408169357999E-20
(PID.TID 0000.0001) // =======================================================
(PID.TID 0000.0001) // End MONITOR dynamic field statistics
(PID.TID 0000.0001) // =======================================================
 cg2d: Sum(rhs),rhsMax =   5.19760447232208E-04  1.38919617702703E-01
 cg2d: Sum(rhs),rhsMax =   5.21029881004412E-04  1.38925633908625E-01
 cg2d: Sum(rhs),rhsMax =   5.22291087846459E-04  1.38931651808571E-01
 cg2d: Sum(rhs),rhsMax =   5.23544059620050E-04  1.38937671390592E-01
 cg2d: Sum(rhs),rhsMax =   5.24788788131308E-04  1.38943692642731E-01
 cg2d: Sum(rhs),rhsMax =   5.26025265271092E-04  1.38949715553025E-01
 cg2d: Sum(rhs),rhsMax =   5.27253482985793E-04  1.38955740109505E-01
 cg2d: Sum(rhs),rhsMax =   5.28473433262259E-04  1.38961766300200E-01
 cg2d: Sum(rhs),rhsMax =   5.29685108254149E-04  1.38967794113135E-01
 cg2d: Sum(rhs),rhsMax =   5.30888499948594E-04  1.38973823536330E-01
 cg2d: Sum(rhs),rhsMax =   5.32083600447487E-04  1.38979854557799E-01
 cg2d: Sum(rhs),rhsMax =   5.33270401955904E-04  1.38985887165551E-01
 cg2d: Sum(rhs),rhsMax =   5.34448896686872E-04  1.38991921347589E-01
 cg2d: Sum(rhs),rhsMax =   5.35619076978573E-04  1.38997957091912E-01
 cg2d: Sum(rhs),rhsMax =   5.36780935056136E-04  1.39003994386512E-01
 cg2d: Sum(rhs),rhsMax =   5.37934463466021E-04  1.39010033219378E-01
 cg2d: Sum(rhs),rhsMax =   5.39079654344999E-04  1.39016073578492E-01
 cg2d: Sum(rhs),rhsMax =   5.40216500344431E-04  1.39022115451834E-01
 cg2d: Sum(rhs),rhsMax =   5.41344993842746E-04  1.39028158827374E-01
 cg2d: Sum(rhs),rhsMax =   5.42465127489958E-04  1.39034203693083E-01
 cg2d: Sum(rhs),rhsMax =   5.43576893808282E-04  1.39040250036923E-01
 cg2d: Sum(rhs),rhsMax =   5.44680285507220E-04  1.39046297846851E-01
 cg2d: Sum(rhs),rhsMax =   5.45775295212947E-04  1.39052347110823E-01
 cg2d: Sum(rhs),rhsMax =   5.46861915701398E-04  1.39058397816785E-01
 cg2d: Sum(rhs),rhsMax =   5.47940139635722E-04  1.39064449952684E-01
 cg2d: Sum(rhs),rhsMax =   5.49009960084893E-04  1.39070503506456E-01
 cg2d: Sum(rhs),rhsMax =   5.50071369739067E-04  1.39076558466036E-01
 cg2d: Sum(rhs),rhsMax =   5.51124361540926E-04  1.39082614819355E-01
 cg2d: Sum(rhs),rhsMax =   5.52168928414627E-04  1.39088672554336E-01
 cg2d: Sum(rhs),rhsMax =   5.53205063457905E-04  1.39094731658900E-01
 cg2d: Sum(rhs),rhsMax =   5.54232759666679E-04  1.39100792120963E-01
 cg2d: Sum(rhs),rhsMax =   5.55252010154329E-04  1.39106853928435E-01
 cg2d: Sum(rhs),rhsMax =   5.56262808182499E-04  1.39112917069222E-01
 cg2d: Sum(rhs),rhsMax =   5.57265146745126E-04  1.39118981531227E-01
 cg2d: Sum(rhs),rhsMax =   5.58259019218624E-04  1.39125047302346E-01
 cg2d: Sum(rhs),rhsMax =   5.59244418811309E-04  1.39131114370473E-01
 cg2d: Sum(rhs),rhsMax =   5.60221338919027E-04  1.39137182723495E-01
 cg2d: Sum(rhs),rhsMax =   5.61189772891890E-04  1.39143252349298E-01
 cg2d: Sum(rhs),rhsMax =   5.62149714173502E-04  1.39149323235758E-01
 cg2d: Sum(rhs),rhsMax =   5.63101156192175E-04  1.39155395370753E-01
 cg2d: Sum(rhs),rhsMax =   5.64044092402671E-04  1.39161468742152E-01
 cg2d: Sum(rhs),rhsMax =   5.64978516419462E-04  1.39167543337823E-01
 cg2d: Sum(rhs),rhsMax =   5.65904421911879E-04  1.39173619145627E-01
 cg2d: Sum(rhs),rhsMax =   5.66821802430775E-04  1.39179696153421E-01
 cg2d: Sum(rhs),rhsMax =   5.67730651602174E-04  1.39185774349059E-01
 cg2d: Sum(rhs),rhsMax =   5.68630963352534E-04  1.39191853720392E-01
 cg2d: Sum(rhs),rhsMax =   5.69545634765821E-04  1.39197934221502E-01
 cg2d: Sum(rhs),rhsMax =   5.70451488846537E-04  1.39204015888763E-01
 cg2d: Sum(rhs),rhsMax =   5.71348535244190E-04  1.39210098714495E-01
 cg2d: Sum(rhs),rhsMax =   5.72236774982861E-04  1.39216182667321E-01
 cg2d: Sum(rhs),rhsMax =   5.73116207246655E-04  1.39222267734052E-01
 cg2d: Sum(rhs),rhsMax =   5.73986823814029E-04  1.39228353903017E-01
 cg2d: Sum(rhs),rhsMax =   5.74848617396350E-04  1.39234441162190E-01
 cg2d: Sum(rhs),rhsMax =   5.75701582820655E-04  1.39240529499636E-01
 cg2d: Sum(rhs),rhsMax =   5.76545716326852E-04  1.39246618903257E-01
 cg2d: Sum(rhs),rhsMax =   5.77381013746807E-04  1.39252709360885E-01
 cg2d: Sum(rhs),rhsMax =   5.78207470875391E-04  1.39258800860316E-01
 cg2d: Sum(rhs),rhsMax =   5.79025083066602E-04  1.39264893389332E-01
 cg2d: Sum(rhs),rhsMax =   5.79833845718665E-04  1.39270986935721E-01
 cg2d: Sum(rhs),rhsMax =   5.80633754575916E-04  1.39277081487266E-01
 cg2d: Sum(rhs),rhsMax =   5.81424805046319E-04  1.39283177031756E-01
 cg2d: Sum(rhs),rhsMax =   5.82206992965512E-04  1.39289273556978E-01
 cg2d: Sum(rhs),rhsMax =   5.82980313980244E-04  1.39295371050718E-01
 cg2d: Sum(rhs),rhsMax =   5.83744763803265E-04  1.39301469500756E-01
 cg2d: Sum(rhs),rhsMax =   5.84500338229792E-04  1.39307568894867E-01
 cg2d: Sum(rhs),rhsMax =   5.85247032872454E-04  1.39313669220823E-01
 cg2d: Sum(rhs),rhsMax =   5.85984843659058E-04  1.39319770466391E-01
 cg2d: Sum(rhs),rhsMax =   5.86713766306739E-04  1.39325872619333E-01
 cg2d: Sum(rhs),rhsMax =   5.87433796695389E-04  1.39331975667411E-01
 cg2d: Sum(rhs),rhsMax =   5.88144930705007E-04  1.39338079598381E-01
 cg2d: Sum(rhs),rhsMax =   5.88847164137925E-04  1.39344184399996E-01
 cg2d: Sum(rhs),rhsMax =   5.89540493010249E-04  1.39350290060006E-01
(PID.TID 0000.0001)      cg2d_init_res =   5.21266293815491E-04
(PID.TID 0000.0001)      cg2d_iters(min,last) =      -1      59
(PID.TID 0000.0001)      cg2d_last_res =   9.32917138570870E-08
(PID.TID 0000.0001) // =======================================================
(PID.TID 0000.0001) // Begin MONITOR dynamic field statistics
(PID.TID 0000.0001) // =======================================================
(PID.TID 0000.0001) %MON time_tsnumber                =                 20664
(PID.TID 0000.0001) %MON time_secondsf                =   2.4796800000000E+07
(PID.TID 0000.0001) %MON dynstat_eta_max              =   4.5432374278323E-02
(PID.TID 0000.0001) %MON dynstat_eta_min              =  -2.3361875752376E-02
(PID.TID 0000.0001) %MON dynstat_eta_mean             =  -4.1125808533375E-07
(PID.TID 0000.0001) %MON dynstat_eta_sd               =   1.7497385652422E-02
(PID.TID 0000.0001) %MON dynstat_eta_del2             =   1.7497324518810E-05
(PID.TID 0000.0001) %MON dynstat_uvel_max             =   3.0949605027452E-02
(PID.TID 0000.0001) %MON dynstat_uvel_min             =  -1.5468229575263E-02
(PID.TID 0000.0001) %MON dynstat_uvel_mean            =  -1.4609219970890E-07
(PID.TID 0000.0001) %MON dynstat_uvel_sd              =   7.0521495484845E-03
(PID.TID 0000.0001) %MON dynstat_uvel_del2            =   8.1109131065847E-06
(PID.TID 0000.0001) %MON dynstat_vvel_max             =   8.3584329152930E-02
(PID.TID 0000.0001) %MON dynstat_vvel_min             =  -2.9448472477335E-02
(PID.TID 0000.0001) %MON dynstat_vvel_mean            =  -1.4000049947587E-08
(PID.TID 0000.0001) %MON dynstat_vvel_sd              =   1.4522192427528E-02
(PID.TID 0000.0001) %MON dynstat_vvel_del2            =   7.3345910991531E-05
(PID.TID 0000.0001) %MON dynstat_wvel_max             =   5.9411705545790E-09
(PID.TID 0000.0001) %MON dynstat_wvel_min             =  -7.0099694913370E-09
(PID.TID 0000.0001) %MON dynstat_wvel_mean            =   1.7395529125805E-21
(PID.TID 0000.0001) %MON dynstat_wvel_sd              =   3.2226147192779E-09
(PID.TID 0000.0001) %MON dynstat_wvel_del2            =   9.7506623071093E-13
(PID.TID 0000.0001) %MON dynstat_theta_max            =   2.0000000000000E+01
(PID.TID 0000.0001) %MON dynstat_theta_min            =   2.0000000000000E+01
(PID.TID 0000.0001) %MON dynstat_theta_mean           =   2.0000000000000E+01
(PID.TID 0000.0001) %MON dynstat_theta_sd             =   0.0000000000000E+00
(PID.TID 0000.0001) %MON dynstat_theta_del2           =   0.0000000000000E+00
(PID.TID 0000.0001) %MON dynstat_salt_max             =   3.0000000000000E+01
(PID.TID 0000.0001) %MON dynstat_salt_min             =   3.0000000000000E+01
(PID.TID 0000.0001) %MON dynstat_salt_mean            =   3.0000000000000E+01
(PID.TID 0000.0001) %MON dynstat_salt_sd              =   0.0000000000000E+00
(PID.TID 0000.0001) %MON dynstat_salt_del2            =   0.0000000000000E+00
(PID.TID 0000.0001) %MON trAdv_CFL_u_max              =   1.8569012958970E-03
(PID.TID 0000.0001) %MON trAdv_CFL_v_max              =   5.0148493953933E-03
(PID.TID 0000.0001) %MON trAdv_CFL_w_max              =   1.4262279141520E-09
(PID.TID 0000.0001) %MON advcfl_uvel_max              =   1.8569763016471E-03
(PID.TID 0000.0001) %MON advcfl_vvel_max              =   5.0150597491758E-03
(PID.TID 0000.0001) %MON advcfl_wvel_max              =   3.3647853558417E-09
(PID.TID 0000.0001) %MON advcfl_W_hf_max              =   0.0000000000000E+00
(PID.TID 0000.0001) %MON pe_b_mean                    =   3.0034149324677E-07
(PID.TID 0000.0001) %MON ke_max                       =   3.4889695440297E-03
(PID.TID 0000.0001) %MON ke_mean                      =   1.2814155237079E-04
(PID.TID 0000.0001) %MON ke_vol                       =   7.2000000000000E+15
(PID.TID 0000.0001) %MON vort_r_min                   =  -1.4535231298383E-06
(PID.TID 0000.0001) %MON vort_r_max                   =   2.3156499197248E-06
(PID.TID 0000.0001) %MON vort_a_mean                  =   1.0600000000000E-04
(PID.TID 0000.0001) %MON vort_a_sd                    =   3.5362735543542E-06
(PID.TID 0000.0001) %MON vort_p_mean                  =   1.1130000000000E-04
(PID.TID 0000.0001) %MON vort_p_sd                    =   4.1152395210062E-05
(PID.TID 0000.0001) %MON surfExpan_theta_mean         =   3.4791917495151E-20
(PID.TID 0000.0001) %MON surfExpan_salt_mean          =   5.2188192039498E-20
(PID.TID 0000.0001) // =======================================================
(PID.TID 0000.0001) // End MONITOR dynamic field statistics
(PID.TID 0000.0001) // =======================================================
 cg2d: Sum(rhs),rhsMax =   5.90224913183415E-04  1.39356396566160E-01
 cg2d: Sum(rhs),rhsMax =   5.90900420688723E-04  1.39362503906197E-01
 cg2d: Sum(rhs),rhsMax =   5.91567011420293E-04  1.39368612067860E-01
 cg2d: Sum(rhs),rhsMax =   5.92224681315448E-04  1.39374721038885E-01
 cg2d: Sum(rhs),rhsMax =   5.92873426578258E-04  1.39380830807004E-01
 cg2d: Sum(rhs),rhsMax =   5.93513243064728E-04  1.39386941359947E-01
 cg2d: Sum(rhs),rhsMax =   5.94144126937188E-04  1.39393052685441E-01
 cg2d: Sum(rhs),rhsMax =   5.94766074238349E-04  1.39399164771209E-01
 cg2d: Sum(rhs),rhsMax =   5.95379080909966E-04  1.39405277604970E-01
 cg2d: Sum(rhs),rhsMax =   5.95983143108499E-04  1.39411391174442E-01
 cg2d: Sum(rhs),rhsMax =   5.96578256935900E-04  1.39417505467340E-01
 cg2d: Sum(rhs),rhsMax =   5.97164418605047E-04  1.39423620471371E-01
 cg2d: Sum(rhs),rhsMax =   5.97741624056400E-04  1.39429736174248E-01
 cg2d: Sum(rhs),rhsMax =   5.98309869496590E-04  1.39435852563670E-01
 cg2d: Sum(rhs),rhsMax =   5.98869151063349E-04  1.39441969627341E-01
 cg2d: Sum(rhs),rhsMax =   5.99419464911222E-04  1.39448087352960E-01
 cg2d: Sum(rhs),rhsMax =   5.99960807197647E-04  1.39454205728221E-01
 cg2d: Sum(rhs),rhsMax =   6.00493173873890E-04  1.39460324740818E-01
 cg2d: Sum(rhs),rhsMax =   6.01016561376738E-04  1.39466444378440E-01
 cg2d: Sum(rhs),rhsMax =   6.01530965669713E-04  1.39472564628773E-01
 cg2d: Sum(rhs),rhsMax =   6.02036382942592E-04  1.39478685479501E-01
 cg2d: Sum(rhs),rhsMax =   6.02532809426609E-04  1.39484806918307E-01
 cg2d: Sum(rhs),rhsMax =   6.03020241046286E-04  1.39490928932867E-01
 cg2d: Sum(rhs),rhsMax =   6.03498674126543E-04  1.39497051510858E-01
 cg2d: Sum(rhs),rhsMax =   6.03968104688653E-04  1.39503174639951E-01
 cg2d: Sum(rhs),rhsMax =   6.04428528930875E-04  1.39509298307819E-01
 cg2d: Sum(rhs),rhsMax =   6.04879942798260E-04  1.39515422502126E-01
 cg2d: Sum(rhs),rhsMax =   6.05322342438582E-04  1.39521547210539E-01
 cg2d: Sum(rhs),rhsMax =   6.05755724071864E-04  1.39527672420719E-01
 cg2d: Sum(rhs),rhsMax =   6.06180083547478E-04  1.39533798120326E-01
 cg2d: Sum(rhs),rhsMax =   6.06595417028117E-04  1.39539924297017E-01
 cg2d: Sum(rhs),rhsMax =   6.07001720446650E-04  1.39546050938446E-01
 cg2d: Sum(rhs),rhsMax =   6.07398989776209E-04  1.39552178032264E-01
 cg2d: Sum(rhs),rhsMax =   6.07787221045723E-04  1.39558305566123E-01
 cg2d: Sum(rhs),rhsMax =   6.08166410162509E-04  1.39564433527668E-01
 cg2d: Sum(rhs),rhsMax =   6.08536552995841E-04  1.39570561904543E-01
 cg2d: Sum(rhs),rhsMax =   6.08897645332177E-04  1.39576690684392E-01
 cg2d: Sum(rhs),rhsMax =   6.09249683083661E-04  1.39582819854852E-01
 cg2d: Sum(rhs),rhsMax =   6.09592662141472E-04  1.39588949403564E-01
 cg2d: Sum(rhs),rhsMax =   6.09926578154038E-04  1.39595079318161E-01
 cg2d: Sum(rhs),rhsMax =   6.10251426770441E-04  1.39601209586275E-01
 cg2d: Sum(rhs),rhsMax =   6.10567203714084E-04  1.39607340195538E-01
 cg2d: Sum(rhs),rhsMax =   6.10873904571857E-04  1.39613471133579E-01
 cg2d: Sum(rhs),rhsMax =   6.11171524857040E-04  1.39619602388022E-01
 cg2d: Sum(rhs),rhsMax =   6.11460060187027E-04  1.39625733946493E-01
 cg2d: Sum(rhs),rhsMax =   6.11739505911734E-04  1.39631865796613E-01
 cg2d: Sum(rhs),rhsMax =   6.12009857486895E-04  1.39637997926001E-01
 cg2d: Sum(rhs),rhsMax =   6.12271110278464E-04  1.39644130322277E-01
 cg2d: Sum(rhs),rhsMax =   6.12523259557483E-04  1.39650262973053E-01
 cg2d: Sum(rhs),rhsMax =   6.12766300481609E-04  1.39656395865947E-01
 cg2d: Sum(rhs),rhsMax =   6.13000228302524E-04  1.39662528988567E-01
 cg2d: Sum(rhs),rhsMax =   6.13225038131967E-04  1.39668662328524E-01
 cg2d: Sum(rhs),rhsMax =   6.13449252407601E-04  1.39674795904580E-01
 cg2d: Sum(rhs),rhsMax =   6.13664064299811E-04  1.39680929627412E-01
 cg2d: Sum(rhs),rhsMax =   6.13869497652714E-04  1.39687063542469E-01
 cg2d: Sum(rhs),rhsMax =   6.14065574011988E-04  1.39693197626169E-01
 cg2d: Sum(rhs),rhsMax =   6.14252288511345E-04  1.39699331864885E-01
 cg2d: Sum(rhs),rhsMax =   6.14429623166914E-04  1.39705466246527E-01
 cg2d: Sum(rhs),rhsMax =   6.14597562810744E-04  1.39711600758828E-01
 cg2d: Sum(rhs),rhsMax =   6.14756097834943E-04  1.39717735389411E-01
 cg2d: Sum(rhs),rhsMax =   6.14905221086944E-04  1.39723870125794E-01
 cg2d: Sum(rhs),rhsMax =   6.15044924535969E-04  1.39730004955477E-01
 cg2d: Sum(rhs),rhsMax =   6.15175198883825E-04  1.39736139866010E-01
 cg2d: Sum(rhs),rhsMax =   6.15296033885895E-04  1.39742274845004E-01
 cg2d: Sum(rhs),rhsMax =   6.15407418929950E-04  1.39748409880082E-01
 cg2d: Sum(rhs),rhsMax =   6.15509343281543E-04  1.39754544958861E-01
 cg2d: Sum(rhs),rhsMax =   6.15601795928613E-04  1.39760680068932E-01
 cg2d: Sum(rhs),rhsMax =   6.15684765509401E-04  1.39766815197872E-01
 cg2d: Sum(rhs),rhsMax =   6.15758240351745E-04  1.39772950333254E-01
 cg2d: Sum(rhs),rhsMax =   6.15822208374014E-04  1.39779085462653E-01
 cg2d: Sum(rhs),rhsMax =   6.15876656947282E-04  1.39785220573645E-01
 cg2d: Sum(rhs),rhsMax =   6.15921573234994E-04  1.39791355653806E-01
(PID.TID 0000.0001)      cg2d_init_res =   5.16556430847447E-04
(PID.TID 0000.0001)      cg2d_iters(min,last) =      -1      58
(PID.TID 0000.0001)      cg2d_last_res =   9.58892548260415E-08
(PID.TID 0000.0001) // =======================================================
(PID.TID 0000.0001) // Begin MONITOR dynamic field statistics
(PID.TID 0000.0001) // =======================================================
(PID.TID 0000.0001) %MON time_tsnumber                =                 20736
(PID.TID 0000.0001) %MON time_secondsf                =   2.4883200000000E+07
(PID.TID 0000.0001) %MON dynstat_eta_max              =   4.5686903520565E-02
(PID.TID 0000.0001) %MON dynstat_eta_min              =  -2.3379270944843E-02
(PID.TID 0000.0001) %MON dynstat_eta_mean             =  -4.3054617585707E-07
(PID.TID 0000.0001) %MON dynstat_eta_sd               =   1.7660544768303E-02
(PID.TID 0000.0001) %MON dynstat_eta_del2             =   1.7508068489828E-05
(PID.TID 0000.0001) %MON dynstat_uvel_max             =   3.1040908591955E-02
(PID.TID 0000.0001) %MON dynstat_uvel_min             =  -1.5537472033212E-02
(PID.TID 0000.0001) %MON dynstat_uvel_mean            =  -1.4673419415881E-07
(PID.TID 0000.0001) %MON dynstat_uvel_sd              =   7.0806911314274E-03
(PID.TID 0000.0001) %MON dynstat_uvel_del2            =   8.1323778440471E-06
(PID.TID 0000.0001) %MON dynstat_vvel_max             =   8.3838960739413E-02
(PID.TID 0000.0001) %MON dynstat_vvel_min             =  -2.9341005650408E-02
(PID.TID 0000.0001) %MON dynstat_vvel_mean            =  -1.3106755242305E-08
(PID.TID 0000.0001) %MON dynstat_vvel_sd              =   1.4561504999078E-02
(PID.TID 0000.0001) %MON dynstat_vvel_del2            =   7.3460046748189E-05
(PID.TID 0000.0001) %MON dynstat_wvel_max             =   5.8227915482712E-09
(PID.TID 0000.0001) %MON dynstat_wvel_min             =  -7.1488176990533E-09
(PID.TID 0000.0001) %MON dynstat_wvel_mean            =  -2.8879809911410E-21
(PID.TID 0000.0001) %MON dynstat_wvel_sd              =   3.2095713143455E-09
(PID.TID 0000.0001) %MON dynstat_wvel_del2            =   9.8639087330242E-13
(PID.TID 0000.0001) %MON dynstat_theta_max            =   2.0000000000000E+01
(PID.TID 0000.0001) %MON dynstat_theta_min            =   2.0000000000000E+01
(PID.TID 0000.0001) %MON dynstat_theta_mean           =   2.0000000000000E+01
(PID.TID 0000.0001) %MON dynstat_theta_sd             =   0.0000000000000E+00
(PID.TID 0000.0001) %MON dynstat_theta_del2           =   0.0000000000000E+00
(PID.TID 0000.0001) %MON dynstat_salt_max             =   3.0000000000000E+01
(PID.TID 0000.0001) %MON dynstat_salt_min             =   3.0000000000000E+01
(PID.TID 0000.0001) %MON dynstat_salt_mean            =   3.0000000000000E+01
(PID.TID 0000.0001) %MON dynstat_salt_sd              =   0.0000000000000E+00
(PID.TID 0000.0001) %MON dynstat_salt_del2            =   0.0000000000000E+00
(PID.TID 0000.0001) %MON trAdv_CFL_u_max              =   1.8623774995494E-03
(PID.TID 0000.0001) %MON trAdv_CFL_v_max              =   5.0301240294543E-03
(PID.TID 0000.0001) %MON trAdv_CFL_w_max              =   1.3978686443763E-09
(PID.TID 0000.0001) %MON advcfl_uvel_max              =   1.8624545155173E-03
(PID.TID 0000.0001) %MON advcfl_vvel_max              =   5.0303376443648E-03
(PID.TID 0000.0001) %MON advcfl_wvel_max              =   3.4314324955456E-09
(PID.TID 0000.0001) %MON advcfl_W_hf_max              =   0.0000000000000E+00
(PID.TID 0000.0001) %MON pe_b_mean                    =   3.0596883970634E-07
(PID.TID 0000.0001) %MON ke_max                       =   3.5104562283664E-03
(PID.TID 0000.0001) %MON ke_mean                      =   1.2890202725629E-04
(PID.TID 0000.0001) %MON ke_vol                       =   7.2000000000000E+15
(PID.TID 0000.0001) %MON vort_r_min                   =  -1.4549719101172E-06
(PID.TID 0000.0001) %MON vort_r_max                   =   2.3232588960270E-06
(PID.TID 0000.0001) %MON vort_a_mean                  =   1.0600000000000E-04
(PID.TID 0000.0001) %MON vort_a_sd                    =   3.5363376715494E-06
(PID.TID 0000.0001) %MON vort_p_mean                  =   1.1130000000000E-04
(PID.TID 0000.0001) %MON vort_p_sd                    =   4.1152396404483E-05
(PID.TID 0000.0001) %MON surfExpan_theta_mean         =  -5.7759703193167E-20
(PID.TID 0000.0001) %MON surfExpan_salt_mean          =  -8.6639712688136E-20
(PID.TID 0000.0001) // =======================================================
(PID.TID 0000.0001) // End MONITOR dynamic field statistics
(PID.TID 0000.0001) // =======================================================
 cg2d: Sum(rhs),rhsMax =   6.15956944213549E-04  1.39797490690713E-01
 cg2d: Sum(rhs),rhsMax =   6.15982756086601E-04  1.39803625671937E-01
 cg2d: Sum(rhs),rhsMax =   6.15998995269511E-04  1.39809760585049E-01
 cg2d: Sum(rhs),rhsMax =   6.16005647427680E-04  1.39815895417619E-01
 cg2d: Sum(rhs),rhsMax =   6.16002698213890E-04  1.39822030157217E-01
 cg2d: Sum(rhs),rhsMax =   6.15990132935816E-04  1.39828164791409E-01
 cg2d: Sum(rhs),rhsMax =   6.15967936808654E-04  1.39834299307762E-01
 cg2d: Sum(rhs),rhsMax =   6.15936094872168E-04  1.39840433693844E-01
 cg2d: Sum(rhs),rhsMax =   6.15894592209400E-04  1.39846567937219E-01
 cg2d: Sum(rhs),rhsMax =   6.15843413713026E-04  1.39852702025448E-01
 cg2d: Sum(rhs),rhsMax =   6.15782544620485E-04  1.39858835946094E-01
 cg2d: Sum(rhs),rhsMax =   6.15711970502050E-04  1.39864969686716E-01
 cg2d: Sum(rhs),rhsMax =   6.15631677105506E-04  1.39871103234873E-01
 cg2d: Sum(rhs),rhsMax =   6.15541650776301E-04  1.39877236578123E-01
 cg2d: Sum(rhs),rhsMax =   6.15441878737094E-04  1.39883369704024E-01
 cg2d: Sum(rhs),rhsMax =   6.15332348982253E-04  1.39889502600129E-01
 cg2d: Sum(rhs),rhsMax =   6.15213050760197E-04  1.39895635253997E-01
 cg2d: Sum(rhs),rhsMax =   6.15083974840662E-04  1.39901767653177E-01
 cg2d: Sum(rhs),rhsMax =   6.14945113517451E-04  1.39907899785226E-01
 cg2d: Sum(rhs),rhsMax =   6.14796461379486E-04  1.39914031637693E-01
 cg2d: Sum(rhs),rhsMax =   6.14638015423002E-04  1.39920163198130E-01
 cg2d: Sum(rhs),rhsMax =   6.14469775246995E-04  1.39926294454088E-01
 cg2d: Sum(rhs),rhsMax =   6.14291743803261E-04  1.39932425393114E-01
 cg2d: Sum(rhs),rhsMax =   6.14103927801930E-04  1.39938556002758E-01
 cg2d: Sum(rhs),rhsMax =   6.13906337866469E-04  1.39944686270569E-01
 cg2d: Sum(rhs),rhsMax =   6.13698989353634E-04  1.39950816184093E-01
 cg2d: Sum(rhs),rhsMax =   6.13481902754507E-04  1.39956945730877E-01
 cg2d: Sum(rhs),rhsMax =   6.13255103763232E-04  1.39963074898469E-01
 cg2d: Sum(rhs),rhsMax =   6.13018624386352E-04  1.39969203674415E-01
 cg2d: Sum(rhs),rhsMax =   6.12772502619419E-04  1.39975332046263E-01
 cg2d: Sum(rhs),rhsMax =   6.12516783325652E-04  1.39981460001559E-01
 cg2d: Sum(rhs),rhsMax =   6.12251518226002E-04  1.39987587527851E-01
 cg2d: Sum(rhs),rhsMax =   6.11976766140578E-04  1.39993714612687E-01
 cg2d: Sum(rhs),rhsMax =   6.11692592644578E-04  1.39999841243616E-01
 cg2d: Sum(rhs),rhsMax =   6.11399070473880E-04  1.40005967408187E-01
 cg2d: Sum(rhs),rhsMax =   6.11096279022543E-04  1.40012093093953E-01
 cg2d: Sum(rhs),rhsMax =   6.10784303496247E-04  1.40018218288464E-01
 cg2d: Sum(rhs),rhsMax =   6.10463234722555E-04  1.40024342979274E-01
 cg2d: Sum(rhs),rhsMax =   6.10133168128968E-04  1.40030467153937E-01
 cg2d: Sum(rhs),rhsMax =   6.09794202630411E-04  1.40036590800011E-01
 cg2d: Sum(rhs),rhsMax =   6.09446439672364E-04  1.40042713905051E-01
 cg2d: Sum(rhs),rhsMax =   6.09089981706393E-04  1.40048836456619E-01
 cg2d: Sum(rhs),rhsMax =   6.08724931042247E-04  1.40054958442272E-01
 cg2d: Sum(rhs),rhsMax =   6.08351388367240E-04  1.40061079849572E-01
 cg2d: Sum(rhs),rhsMax =   6.07969451556984E-04  1.40067200666081E-01
 cg2d: Sum(rhs),rhsMax =   6.07579213825617E-04  1.40073320879359E-01
 cg2d: Sum(rhs),rhsMax =   6.07212360379162E-04  1.40079440451716E-01
 cg2d: Sum(rhs),rhsMax =   6.06838282425868E-04  1.40085559426565E-01
 cg2d: Sum(rhs),rhsMax =   6.06456925354619E-04  1.40091677761051E-01
 cg2d: Sum(rhs),rhsMax =   6.06068240840366E-04  1.40097795445282E-01
 cg2d: Sum(rhs),rhsMax =   6.05672180675160E-04  1.40103912464691E-01
 cg2d: Sum(rhs),rhsMax =   6.05268717792183E-04  1.40110028804695E-01
 cg2d: Sum(rhs),rhsMax =   6.04857833129890E-04  1.40116144452353E-01
 cg2d: Sum(rhs),rhsMax =   6.04439501542141E-04  1.40122259395978E-01
 cg2d: Sum(rhs),rhsMax =   6.04013684795248E-04  1.40128373624196E-01
 cg2d: Sum(rhs),rhsMax =   6.03580331902958E-04  1.40134487125308E-01
 cg2d: Sum(rhs),rhsMax =   6.03139384255599E-04  1.40140599887038E-01
 cg2d: Sum(rhs),rhsMax =   6.02690780586936E-04  1.40146711896698E-01
 cg2d: Sum(rhs),rhsMax =   6.02234460172549E-04  1.40152823141502E-01
 cg2d: Sum(rhs),rhsMax =   6.01770363567559E-04  1.40158933608775E-01
 cg2d: Sum(rhs),rhsMax =   6.01298432570708E-04  1.40165043286011E-01
 cg2d: Sum(rhs),rhsMax =   6.00818610061195E-04  1.40171152160811E-01
 cg2d: Sum(rhs),rhsMax =   6.00330839751050E-04  1.40177260220801E-01
 cg2d: Sum(rhs),rhsMax =   5.99835067007515E-04  1.40183367453575E-01
 cg2d: Sum(rhs),rhsMax =   5.99331239088724E-04  1.40189473846691E-01
 cg2d: Sum(rhs),rhsMax =   5.98819305836587E-04  1.40195579387680E-01
 cg2d: Sum(rhs),rhsMax =   5.98299219948592E-04  1.40201684064070E-01
 cg2d: Sum(rhs),rhsMax =   5.97770936833287E-04  1.40207787863395E-01
 cg2d: Sum(rhs),rhsMax =   5.97234415173066E-04  1.40213890773203E-01
 cg2d: Sum(rhs),rhsMax =   5.96689616392691E-04  1.40219992781048E-01
 cg2d: Sum(rhs),rhsMax =   5.96136504695362E-04  1.40226093874483E-01
 cg2d: Sum(rhs),rhsMax =   5.95575047233647E-04  1.40232194041062E-01
(PID.TID 0000.0001)      cg2d_init_res =   5.11219262318207E-04
(PID.TID 0000.0001)      cg2d_iters(min,last) =      -1      59
(PID.TID 0000.0001)      cg2d_last_res =   9.80026302061278E-08
(PID.TID 0000.0001) // =======================================================
(PID.TID 0000.0001) // Begin MONITOR dynamic field statistics
(PID.TID 0000.0001) // =======================================================
(PID.TID 0000.0001) %MON time_tsnumber                =                 20808
(PID.TID 0000.0001) %MON time_secondsf                =   2.4969600000000E+07
(PID.TID 0000.0001) %MON dynstat_eta_max              =   4.5967239393830E-02
(PID.TID 0000.0001) %MON dynstat_eta_min              =  -2.3370626257688E-02
(PID.TID 0000.0001) %MON dynstat_eta_mean             =  -4.1721257814900E-07
(PID.TID 0000.0001) %MON dynstat_eta_sd               =   1.7813221782216E-02
(PID.TID 0000.0001) %MON dynstat_eta_del2             =   1.7520841232095E-05
(PID.TID 0000.0001) %MON dynstat_uvel_max             =   3.1134170156723E-02
(PID.TID 0000.0001) %MON dynstat_uvel_min             =  -1.5607264337881E-02
(PID.TID 0000.0001) %MON dynstat_uvel_mean            =  -1.4556808292723E-07
(PID.TID 0000.0001) %MON dynstat_uvel_sd              =   7.1032949076146E-03
(PID.TID 0000.0001) %MON dynstat_uvel_del2            =   8.1499687247128E-06
(PID.TID 0000.0001) %MON dynstat_vvel_max             =   8.4096136738971E-02
(PID.TID 0000.0001) %MON dynstat_vvel_min             =  -2.9245871532515E-02
(PID.TID 0000.0001) %MON dynstat_vvel_mean            =  -1.2151845477419E-08
(PID.TID 0000.0001) %MON dynstat_vvel_sd              =   1.4601786989020E-02
(PID.TID 0000.0001) %MON dynstat_vvel_del2            =   7.3581817488031E-05
(PID.TID 0000.0001) %MON dynstat_wvel_max             =   5.7076160653560E-09
(PID.TID 0000.0001) %MON dynstat_wvel_min             =  -7.2718797804555E-09
(PID.TID 0000.0001) %MON dynstat_wvel_mean            =  -3.5589272329162E-21
(PID.TID 0000.0001) %MON dynstat_wvel_sd              =   3.1953450518304E-09
(PID.TID 0000.0001) %MON dynstat_wvel_del2            =   9.7904818635471E-13
(PID.TID 0000.0001) %MON dynstat_theta_max            =   2.0000000000000E+01
(PID.TID 0000.0001) %MON dynstat_theta_min            =   2.0000000000000E+01
(PID.TID 0000.0001) %MON dynstat_theta_mean           =   2.0000000000000E+01
(PID.TID 0000.0001) %MON dynstat_theta_sd             =   0.0000000000000E+00
(PID.TID 0000.0001) %MON dynstat_theta_del2           =   0.0000000000000E+00
(PID.TID 0000.0001) %MON dynstat_salt_max             =   3.0000000000000E+01
(PID.TID 0000.0001) %MON dynstat_salt_min             =   3.0000000000000E+01
(PID.TID 0000.0001) %MON dynstat_salt_mean            =   3.0000000000000E+01
(PID.TID 0000.0001) %MON dynstat_salt_sd              =   0.0000000000000E+00
(PID.TID 0000.0001) %MON dynstat_salt_del2            =   0.0000000000000E+00
(PID.TID 0000.0001) %MON trAdv_CFL_u_max              =   1.8679719339926E-03
(PID.TID 0000.0001) %MON trAdv_CFL_v_max              =   5.0455535864536E-03
(PID.TID 0000.0001) %MON trAdv_CFL_w_max              =   1.3701067233284E-09
(PID.TID 0000.0001) %MON advcfl_uvel_max              =   1.8680502094034E-03
(PID.TID 0000.0001) %MON advcfl_vvel_max              =   5.0457682043383E-03
(PID.TID 0000.0001) %MON advcfl_wvel_max              =   3.4905022946186E-09
(PID.TID 0000.0001) %MON advcfl_W_hf_max              =   0.0000000000000E+00
(PID.TID 0000.0001) %MON pe_b_mean                    =   3.1128196389819E-07
(PID.TID 0000.0001) %MON ke_max                       =   3.5322368968555E-03
(PID.TID 0000.0001) %MON ke_mean                      =   1.2963724940398E-04
(PID.TID 0000.0001) %MON ke_vol                       =   7.2000000000000E+15
(PID.TID 0000.0001) %MON vort_r_min                   =  -1.4565883383006E-06
(PID.TID 0000.0001) %MON vort_r_max                   =   2.3307651392454E-06
(PID.TID 0000.0001) %MON vort_a_mean                  =   1.0600000000000E-04
(PID.TID 0000.0001) %MON vort_a_sd                    =   3.5364040806511E-06
(PID.TID 0000.0001) %MON vort_p_mean                  =   1.1130000000000E-04
(PID.TID 0000.0001) %MON vort_p_sd                    =   4.1152388368013E-05
(PID.TID 0000.0001) %MON surfExpan_theta_mean         =  -7.1179329097504E-20
(PID.TID 0000.0001) %MON surfExpan_salt_mean          =  -1.0676836205271E-19
(PID.TID 0000.0001) // =======================================================
(PID.TID 0000.0001) // End MONITOR dynamic field statistics
(PID.TID 0000.0001) // =======================================================
 cg2d: Sum(rhs),rhsMax =   5.95005213491435E-04  1.40238293268340E-01
 cg2d: Sum(rhs),rhsMax =   5.94426975919379E-04  1.40244391543867E-01
 cg2d: Sum(rhs),rhsMax =   5.93840309245177E-04  1.40250488855196E-01
 cg2d: Sum(rhs),rhsMax =   5.93245190622009E-04  1.40256585189884E-01
 cg2d: Sum(rhs),rhsMax =   5.92641599501196E-04  1.40262680535487E-01
 cg2d: Sum(rhs),rhsMax =   5.92029517147462E-04  1.40268774879566E-01
 cg2d: Sum(rhs),rhsMax =   5.91408927222836E-04  1.40274868209681E-01
 cg2d: Sum(rhs),rhsMax =   5.90779814859928E-04  1.40280960513392E-01
 cg2d: Sum(rhs),rhsMax =   5.90142167151444E-04  1.40287051778264E-01
 cg2d: Sum(rhs),rhsMax =   5.89495972537867E-04  1.40293141991859E-01
 cg2d: Sum(rhs),rhsMax =   5.88841221087848E-04  1.40299231141743E-01
 cg2d: Sum(rhs),rhsMax =   5.88177904291959E-04  1.40305319215482E-01
 cg2d: Sum(rhs),rhsMax =   5.87506014885502E-04  1.40311406200641E-01
 cg2d: Sum(rhs),rhsMax =   5.86825546751684E-04  1.40317492084792E-01
 cg2d: Sum(rhs),rhsMax =   5.86136494895596E-04  1.40323576855504E-01
 cg2d: Sum(rhs),rhsMax =   5.85438855268164E-04  1.40329660500348E-01
 cg2d: Sum(rhs),rhsMax =   5.84732624879646E-04  1.40335743006898E-01
 cg2d: Sum(rhs),rhsMax =   5.84017801465093E-04  1.40341824362729E-01
 cg2d: Sum(rhs),rhsMax =   5.83294383508462E-04  1.40347904555415E-01
 cg2d: Sum(rhs),rhsMax =   5.82562370545075E-04  1.40353983572534E-01
 cg2d: Sum(rhs),rhsMax =   5.81821762381305E-04  1.40360061401666E-01
 cg2d: Sum(rhs),rhsMax =   5.81072559681123E-04  1.40366138030389E-01
 cg2d: Sum(rhs),rhsMax =   5.80314763662462E-04  1.40372213446286E-01
 cg2d: Sum(rhs),rhsMax =   5.79548376106276E-04  1.40378287636940E-01
 cg2d: Sum(rhs),rhsMax =   5.78773399191684E-04  1.40384360589937E-01
 cg2d: Sum(rhs),rhsMax =   5.77989835587876E-04  1.40390432292860E-01
 cg2d: Sum(rhs),rhsMax =   5.77197688382112E-04  1.40396502733300E-01
 cg2d: Sum(rhs),rhsMax =   5.76396960947980E-04  1.40402571898845E-01
 cg2d: Sum(rhs),rhsMax =   5.75587657322609E-04  1.40408639777087E-01
 cg2d: Sum(rhs),rhsMax =   5.74769781570222E-04  1.40414706355618E-01
 cg2d: Sum(rhs),rhsMax =   5.73943338156676E-04  1.40420771622034E-01
 cg2d: Sum(rhs),rhsMax =   5.73108331920751E-04  1.40426835563929E-01
 cg2d: Sum(rhs),rhsMax =   5.72264767816554E-04  1.40432898168903E-01
 cg2d: Sum(rhs),rhsMax =   5.71412651176844E-04  1.40438959424555E-01
 cg2d: Sum(rhs),rhsMax =   5.70551987519973E-04  1.40445019318487E-01
 cg2d: Sum(rhs),rhsMax =   5.69682782482042E-04  1.40451077838302E-01
 cg2d: Sum(rhs),rhsMax =   5.68805042072361E-04  1.40457134971607E-01
 cg2d: Sum(rhs),rhsMax =   5.67918772365140E-04  1.40463190706006E-01
 cg2d: Sum(rhs),rhsMax =   5.67023979555067E-04  1.40469245029110E-01
 cg2d: Sum(rhs),rhsMax =   5.66120670336194E-04  1.40475297928530E-01
 cg2d: Sum(rhs),rhsMax =   5.65208851063607E-04  1.40481349391879E-01
 cg2d: Sum(rhs),rhsMax =   5.64315553400732E-04  1.40487399318330E-01
 cg2d: Sum(rhs),rhsMax =   5.63413879017516E-04  1.40493447879655E-01
 cg2d: Sum(rhs),rhsMax =   5.62503902035408E-04  1.40499494962151E-01
 cg2d: Sum(rhs),rhsMax =   5.61585624570237E-04  1.40505540561161E-01
 cg2d: Sum(rhs),rhsMax =   5.60659047195844E-04  1.40511584663052E-01
 cg2d: Sum(rhs),rhsMax =   5.59724176139259E-04  1.40517627254152E-01
 cg2d: Sum(rhs),rhsMax =   5.58781023058904E-04  1.40523668321827E-01
 cg2d: Sum(rhs),rhsMax =   5.57829601831311E-04  1.40529707853928E-01
 cg2d: Sum(rhs),rhsMax =   5.56869926001422E-04  1.40535745838445E-01
 cg2d: Sum(rhs),rhsMax =   5.55902007631708E-04  1.40541782263264E-01
 cg2d: Sum(rhs),rhsMax =   5.54925857813117E-04  1.40547817116091E-01
 cg2d: Sum(rhs),rhsMax =   5.53941487026944E-04  1.40553850384496E-01
 cg2d: Sum(rhs),rhsMax =   5.52948906417520E-04  1.40559882056021E-01
 cg2d: Sum(rhs),rhsMax =   5.51948127308199E-04  1.40565912118241E-01
 cg2d: Sum(rhs),rhsMax =   5.50939161350715E-04  1.40571940558790E-01
 cg2d: Sum(rhs),rhsMax =   5.49922020311953E-04  1.40577967365332E-01
 cg2d: Sum(rhs),rhsMax =   5.48896715925593E-04  1.40583992525542E-01
 cg2d: Sum(rhs),rhsMax =   5.47863259751216E-04  1.40590016027093E-01
 cg2d: Sum(rhs),rhsMax =   5.46821663497045E-04  1.40596037857644E-01
 cg2d: Sum(rhs),rhsMax =   5.45771938577770E-04  1.40602058004850E-01
 cg2d: Sum(rhs),rhsMax =   5.44714096905739E-04  1.40608076456367E-01
 cg2d: Sum(rhs),rhsMax =   5.43648150022488E-04  1.40614093199854E-01
 cg2d: Sum(rhs),rhsMax =   5.42574109657554E-04  1.40620108222977E-01
 cg2d: Sum(rhs),rhsMax =   5.41491987640167E-04  1.40626121513405E-01
 cg2d: Sum(rhs),rhsMax =   5.40401795678827E-04  1.40632133058812E-01
 cg2d: Sum(rhs),rhsMax =   5.39303545660778E-04  1.40638142846874E-01
 cg2d: Sum(rhs),rhsMax =   5.38197249364054E-04  1.40644150865269E-01
 cg2d: Sum(rhs),rhsMax =   5.37082918807631E-04  1.40650157101676E-01
 cg2d: Sum(rhs),rhsMax =   5.35960565565818E-04  1.40656161543777E-01
 cg2d: Sum(rhs),rhsMax =   5.34830201915678E-04  1.40662164179258E-01
 cg2d: Sum(rhs),rhsMax =   5.33691839577678E-04  1.40668164995807E-01
(PID.TID 0000.0001)      cg2d_init_res =   5.05356440313922E-04
(PID.TID 0000.0001)      cg2d_iters(min,last) =      -1      60
(PID.TID 0000.0001)      cg2d_last_res =   8.87735406890468E-08
(PID.TID 0000.0001) // =======================================================
(PID.TID 0000.0001) // Begin MONITOR dynamic field statistics
(PID.TID 0000.0001) // =======================================================
(PID.TID 0000.0001) %MON time_tsnumber                =                 20880
(PID.TID 0000.0001) %MON time_secondsf                =   2.5056000000000E+07
(PID.TID 0000.0001) %MON dynstat_eta_max              =   4.6270189412913E-02
(PID.TID 0000.0001) %MON dynstat_eta_min              =  -2.3336095983450E-02
(PID.TID 0000.0001) %MON dynstat_eta_mean             =  -3.7457695833675E-07
(PID.TID 0000.0001) %MON dynstat_eta_sd               =   1.7953812814135E-02
(PID.TID 0000.0001) %MON dynstat_eta_del2             =   1.7535535223153E-05
(PID.TID 0000.0001) %MON dynstat_uvel_max             =   3.1228475778659E-02
(PID.TID 0000.0001) %MON dynstat_uvel_min             =  -1.5676790511973E-02
(PID.TID 0000.0001) %MON dynstat_uvel_mean            =  -1.4261716409669E-07
(PID.TID 0000.0001) %MON dynstat_uvel_sd              =   7.1197539651460E-03
(PID.TID 0000.0001) %MON dynstat_uvel_del2            =   8.1636034813149E-06
(PID.TID 0000.0001) %MON dynstat_vvel_max             =   8.4353123758946E-02
(PID.TID 0000.0001) %MON dynstat_vvel_min             =  -2.9164295155122E-02
(PID.TID 0000.0001) %MON dynstat_vvel_mean            =  -1.1145902942725E-08
(PID.TID 0000.0001) %MON dynstat_vvel_sd              =   1.4642568300146E-02
(PID.TID 0000.0001) %MON dynstat_vvel_del2            =   7.3709838637014E-05
(PID.TID 0000.0001) %MON dynstat_wvel_max             =   5.5904237854702E-09
(PID.TID 0000.0001) %MON dynstat_wvel_min             =  -7.3741097020684E-09
(PID.TID 0000.0001) %MON dynstat_wvel_mean            =   1.7961001377545E-21
(PID.TID 0000.0001) %MON dynstat_wvel_sd              =   3.1801754249849E-09
(PID.TID 0000.0001) %MON dynstat_wvel_del2            =   9.9465153637339E-13
(PID.TID 0000.0001) %MON dynstat_theta_max            =   2.0000000000000E+01
(PID.TID 0000.0001) %MON dynstat_theta_min            =   2.0000000000000E+01
(PID.TID 0000.0001) %MON dynstat_theta_mean           =   2.0000000000000E+01
(PID.TID 0000.0001) %MON dynstat_theta_sd             =   0.0000000000000E+00
(PID.TID 0000.0001) %MON dynstat_theta_del2           =   0.0000000000000E+00
(PID.TID 0000.0001) %MON dynstat_salt_max             =   3.0000000000000E+01
(PID.TID 0000.0001) %MON dynstat_salt_min             =   3.0000000000000E+01
(PID.TID 0000.0001) %MON dynstat_salt_mean            =   3.0000000000000E+01
(PID.TID 0000.0001) %MON dynstat_salt_sd              =   0.0000000000000E+00
(PID.TID 0000.0001) %MON dynstat_salt_del2            =   0.0000000000000E+00
(PID.TID 0000.0001) %MON trAdv_CFL_u_max              =   1.8736297824694E-03
(PID.TID 0000.0001) %MON trAdv_CFL_v_max              =   5.0609740971781E-03
(PID.TID 0000.0001) %MON trAdv_CFL_w_max              =   1.3420158439956E-09
(PID.TID 0000.0001) %MON advcfl_uvel_max              =   1.8737085467195E-03
(PID.TID 0000.0001) %MON advcfl_vvel_max              =   5.0611874255367E-03
(PID.TID 0000.0001) %MON advcfl_wvel_max              =   3.5395726569928E-09
(PID.TID 0000.0001) %MON advcfl_W_hf_max              =   0.0000000000000E+00
(PID.TID 0000.0001) %MON pe_b_mean                    =   3.1621494620589E-07
(PID.TID 0000.0001) %MON ke_max                       =   3.5540834009409E-03
(PID.TID 0000.0001) %MON ke_mean                      =   1.3033872062648E-04
(PID.TID 0000.0001) %MON ke_vol                       =   7.2000000000000E+15
(PID.TID 0000.0001) %MON vort_r_min                   =  -1.4583647171186E-06
(PID.TID 0000.0001) %MON vort_r_max                   =   2.3380861503581E-06
(PID.TID 0000.0001) %MON vort_a_mean                  =   1.0600000000000E-04
(PID.TID 0000.0001) %MON vort_a_sd                    =   3.5364720483882E-06
(PID.TID 0000.0001) %MON vort_p_mean                  =   1.1130000000000E-04
(PID.TID 0000.0001) %MON vort_p_sd                    =   4.1152371195198E-05
(PID.TID 0000.0001) %MON surfExpan_theta_mean         =   3.5923619634559E-20
(PID.TID 0000.0001) %MON surfExpan_salt_mean          =   5.3886061045382E-20
(PID.TID 0000.0001) // =======================================================
(PID.TID 0000.0001) // End MONITOR dynamic field statistics
(PID.TID 0000.0001) // =======================================================
 cg2d: Sum(rhs),rhsMax =   5.32545490564806E-04  1.40674163981117E-01
 cg2d: Sum(rhs),rhsMax =   5.31391166876301E-04  1.40680161122882E-01
 cg2d: Sum(rhs),rhsMax =   5.30228880635642E-04  1.40686156408799E-01
 cg2d: Sum(rhs),rhsMax =   5.29058643740902E-04  1.40692149826569E-01
 cg2d: Sum(rhs),rhsMax =   5.27880468319305E-04  1.40698141363894E-01
 cg2d: Sum(rhs),rhsMax =   5.26694366547749E-04  1.40704131008482E-01
 cg2d: Sum(rhs),rhsMax =   5.25500350592777E-04  1.40710118748041E-01
 cg2d: Sum(rhs),rhsMax =   5.24298432594857E-04  1.40716104570285E-01
 cg2d: Sum(rhs),rhsMax =   5.23088624678198E-04  1.40722088462928E-01
 cg2d: Sum(rhs),rhsMax =   5.21870939180009E-04  1.40728070413691E-01
 cg2d: Sum(rhs),rhsMax =   5.20645388343201E-04  1.40734050410293E-01
 cg2d: Sum(rhs),rhsMax =   5.19411984411697E-04  1.40740028440462E-01
 cg2d: Sum(rhs),rhsMax =   5.18170739787815E-04  1.40746004491924E-01
 cg2d: Sum(rhs),rhsMax =   5.16921666844138E-04  1.40751978552414E-01
 cg2d: Sum(rhs),rhsMax =   5.15664777971657E-04  1.40757950609664E-01
 cg2d: Sum(rhs),rhsMax =   5.14400085550282E-04  1.40763920651414E-01
 cg2d: Sum(rhs),rhsMax =   5.13127602070060E-04  1.40769888665405E-01
 cg2d: Sum(rhs),rhsMax =   5.11847340053036E-04  1.40775854639382E-01
 cg2d: Sum(rhs),rhsMax =   5.10559311949633E-04  1.40781818561094E-01
 cg2d: Sum(rhs),rhsMax =   5.09263530329866E-04  1.40787780418292E-01
 cg2d: Sum(rhs),rhsMax =   5.07960007934657E-04  1.40793740198733E-01
 cg2d: Sum(rhs),rhsMax =   5.06648757296649E-04  1.40799697890175E-01
 cg2d: Sum(rhs),rhsMax =   5.05329790993389E-04  1.40805653480380E-01
 cg2d: Sum(rhs),rhsMax =   5.04003121845120E-04  1.40811606957115E-01
 cg2d: Sum(rhs),rhsMax =   5.02668762529228E-04  1.40817558308150E-01
 cg2d: Sum(rhs),rhsMax =   5.01326725924438E-04  1.40823507521255E-01
 cg2d: Sum(rhs),rhsMax =   4.99977024683062E-04  1.40829454584211E-01
 cg2d: Sum(rhs),rhsMax =   4.98619671735349E-04  1.40835399484796E-01
 cg2d: Sum(rhs),rhsMax =   4.97254679976953E-04  1.40841342210795E-01
 cg2d: Sum(rhs),rhsMax =   4.95882062219429E-04  1.40847282749996E-01
 cg2d: Sum(rhs),rhsMax =   4.94501831607046E-04  1.40853221090190E-01
 cg2d: Sum(rhs),rhsMax =   4.93164138795668E-04  1.40859157425244E-01
 cg2d: Sum(rhs),rhsMax =   4.91819368745742E-04  1.40865091330997E-01
 cg2d: Sum(rhs),rhsMax =   4.90467524238455E-04  1.40871023001908E-01
 cg2d: Sum(rhs),rhsMax =   4.89108613929995E-04  1.40876952429207E-01
 cg2d: Sum(rhs),rhsMax =   4.87742640859485E-04  1.40882879596962E-01
 cg2d: Sum(rhs),rhsMax =   4.86369620652604E-04  1.40888804491654E-01
 cg2d: Sum(rhs),rhsMax =   4.84989574190419E-04  1.40894727100957E-01
 cg2d: Sum(rhs),rhsMax =   4.83602522080602E-04  1.40900647413109E-01
 cg2d: Sum(rhs),rhsMax =   4.82208482975312E-04  1.40906565416435E-01
 cg2d: Sum(rhs),rhsMax =   4.80807473811047E-04  1.40912481099098E-01
 cg2d: Sum(rhs),rhsMax =   4.79399510456010E-04  1.40918394449009E-01
 cg2d: Sum(rhs),rhsMax =   4.77984608615357E-04  1.40924305453917E-01
 cg2d: Sum(rhs),rhsMax =   4.76562784513882E-04  1.40930214101537E-01
 cg2d: Sum(rhs),rhsMax =   4.75134054770347E-04  1.40936120379625E-01
 cg2d: Sum(rhs),rhsMax =   4.73698436541270E-04  1.40942024276009E-01
 cg2d: Sum(rhs),rhsMax =   4.72255946866285E-04  1.40947925778564E-01
 cg2d: Sum(rhs),rhsMax =   4.70806602755257E-04  1.40953824875181E-01
 cg2d: Sum(rhs),rhsMax =   4.69350421292327E-04  1.40959721553746E-01
 cg2d: Sum(rhs),rhsMax =   4.67887419143673E-04  1.40965615802133E-01
 cg2d: Sum(rhs),rhsMax =   4.66417613484816E-04  1.40971507608210E-01
 cg2d: Sum(rhs),rhsMax =   4.64941020981684E-04  1.40977396959849E-01
 cg2d: Sum(rhs),rhsMax =   4.63457658887697E-04  1.40983283844929E-01
 cg2d: Sum(rhs),rhsMax =   4.61967544140868E-04  1.40989168251333E-01
 cg2d: Sum(rhs),rhsMax =   4.60470693847453E-04  1.40995050166954E-01
 cg2d: Sum(rhs),rhsMax =   4.58967125144806E-04  1.41000929579688E-01
 cg2d: Sum(rhs),rhsMax =   4.58209625775589E-04  1.41006805976267E-01
 cg2d: Sum(rhs),rhsMax =   4.57450146377319E-04  1.41012680254137E-01
 cg2d: Sum(rhs),rhsMax =   4.56688710421921E-04  1.41018552103351E-01
 cg2d: Sum(rhs),rhsMax =   4.55925398874367E-04  1.41024421430823E-01
 cg2d: Sum(rhs),rhsMax =   4.55160266189492E-04  1.41030288194114E-01
 cg2d: Sum(rhs),rhsMax =   4.54393322905380E-04  1.41036152368480E-01
 cg2d: Sum(rhs),rhsMax =   4.53624551605508E-04  1.41042013941274E-01
 cg2d: Sum(rhs),rhsMax =   4.52853928976434E-04  1.41047872906760E-01
 cg2d: Sum(rhs),rhsMax =   4.52081440449961E-04  1.41053729259686E-01
 cg2d: Sum(rhs),rhsMax =   4.51307083999626E-04  1.41059582991912E-01
 cg2d: Sum(rhs),rhsMax =   4.50530865700463E-04  1.41065434091966E-01
 cg2d: Sum(rhs),rhsMax =   4.49752793064634E-04  1.41071282546424E-01
 cg2d: Sum(rhs),rhsMax =   4.48972871139420E-04  1.41077128341532E-01
 cg2d: Sum(rhs),rhsMax =   4.48191101022303E-04  1.41082971464203E-01
 cg2d: Sum(rhs),rhsMax =   4.47407481358420E-04  1.41088811902197E-01
 cg2d: Sum(rhs),rhsMax =   4.46622010566704E-04  1.41094649643806E-01
(PID.TID 0000.0001)      cg2d_init_res =   4.99079803534853E-04
(PID.TID 0000.0001)      cg2d_iters(min,last) =      -1      67
(PID.TID 0000.0001)      cg2d_last_res =   9.39932182409712E-08
(PID.TID 0000.0001) // =======================================================
(PID.TID 0000.0001) // Begin MONITOR dynamic field statistics
(PID.TID 0000.0001) // =======================================================
(PID.TID 0000.0001) %MON time_tsnumber                =                 20952
(PID.TID 0000.0001) %MON time_secondsf                =   2.5142400000000E+07
(PID.TID 0000.0001) %MON dynstat_eta_max              =   4.6607641517583E-02
(PID.TID 0000.0001) %MON dynstat_eta_min              =  -2.3276157704897E-02
(PID.TID 0000.0001) %MON dynstat_eta_mean             =  -3.1453745255539E-07
(PID.TID 0000.0001) %MON dynstat_eta_sd               =   1.8080877345012E-02
(PID.TID 0000.0001) %MON dynstat_eta_del2             =   1.7552018423119E-05
(PID.TID 0000.0001) %MON dynstat_uvel_max             =   3.1322893114149E-02
(PID.TID 0000.0001) %MON dynstat_uvel_min             =  -1.5745241377534E-02
(PID.TID 0000.0001) %MON dynstat_uvel_mean            =  -1.3792637003415E-07
(PID.TID 0000.0001) %MON dynstat_uvel_sd              =   7.1299376537959E-03
(PID.TID 0000.0001) %MON dynstat_uvel_del2            =   8.1732729454445E-06
(PID.TID 0000.0001) %MON dynstat_vvel_max             =   8.4607164083248E-02
(PID.TID 0000.0001) %MON dynstat_vvel_min             =  -2.9097358204409E-02
(PID.TID 0000.0001) %MON dynstat_vvel_mean            =  -1.0099355079274E-08
(PID.TID 0000.0001) %MON dynstat_vvel_sd              =   1.4683368279631E-02
(PID.TID 0000.0001) %MON dynstat_vvel_del2            =   7.3842647701139E-05
(PID.TID 0000.0001) %MON dynstat_wvel_max             =   5.4588113872887E-09
(PID.TID 0000.0001) %MON dynstat_wvel_min             =  -7.4699949525530E-09
(PID.TID 0000.0001) %MON dynstat_wvel_mean            =   4.8257930984619E-22
(PID.TID 0000.0001) %MON dynstat_wvel_sd              =   3.1643543156807E-09
(PID.TID 0000.0001) %MON dynstat_wvel_del2            =   9.8628227387040E-13
(PID.TID 0000.0001) %MON dynstat_theta_max            =   2.0000000000000E+01
(PID.TID 0000.0001) %MON dynstat_theta_min            =   2.0000000000000E+01
(PID.TID 0000.0001) %MON dynstat_theta_mean           =   2.0000000000000E+01
(PID.TID 0000.0001) %MON dynstat_theta_sd             =   0.0000000000000E+00
(PID.TID 0000.0001) %MON dynstat_theta_del2           =   0.0000000000000E+00
(PID.TID 0000.0001) %MON dynstat_salt_max             =   3.0000000000000E+01
(PID.TID 0000.0001) %MON dynstat_salt_min             =   3.0000000000000E+01
(PID.TID 0000.0001) %MON dynstat_salt_mean            =   3.0000000000000E+01
(PID.TID 0000.0001) %MON dynstat_salt_sd              =   0.0000000000000E+00
(PID.TID 0000.0001) %MON dynstat_salt_del2            =   0.0000000000000E+00
(PID.TID 0000.0001) %MON trAdv_CFL_u_max              =   1.8792951153196E-03
(PID.TID 0000.0001) %MON trAdv_CFL_v_max              =   5.0762201050274E-03
(PID.TID 0000.0001) %MON trAdv_CFL_w_max              =   1.3106617570273E-09
(PID.TID 0000.0001) %MON advcfl_uvel_max              =   1.8793735868489E-03
(PID.TID 0000.0001) %MON advcfl_vvel_max              =   5.0764298449949E-03
(PID.TID 0000.0001) %MON advcfl_wvel_max              =   3.5855975772254E-09
(PID.TID 0000.0001) %MON advcfl_W_hf_max              =   0.0000000000000E+00
(PID.TID 0000.0001) %MON pe_b_mean                    =   3.2070668127667E-07
(PID.TID 0000.0001) %MON ke_max                       =   3.5757626098884E-03
(PID.TID 0000.0001) %MON ke_mean                      =   1.3099834654236E-04
(PID.TID 0000.0001) %MON ke_vol                       =   7.2000000000000E+15
(PID.TID 0000.0001) %MON vort_r_min                   =  -1.4602912000017E-06
(PID.TID 0000.0001) %MON vort_r_max                   =   2.3451410110736E-06
(PID.TID 0000.0001) %MON vort_a_mean                  =   1.0600000000000E-04
(PID.TID 0000.0001) %MON vort_a_sd                    =   3.5365408178456E-06
(PID.TID 0000.0001) %MON vort_p_mean                  =   1.1130000000000E-04
(PID.TID 0000.0001) %MON vort_p_sd                    =   4.1152345078776E-05
(PID.TID 0000.0001) %MON surfExpan_theta_mean         =   9.6510651322509E-21
(PID.TID 0000.0001) %MON surfExpan_salt_mean          =   1.4476597698376E-20
(PID.TID 0000.0001) // =======================================================
(PID.TID 0000.0001) // End MONITOR dynamic field statistics
(PID.TID 0000.0001) // =======================================================
 cg2d: Sum(rhs),rhsMax =   4.45834687569278E-04  1.41100484677434E-01
 cg2d: Sum(rhs),rhsMax =   4.45045512242290E-04  1.41106316991340E-01
 cg2d: Sum(rhs),rhsMax =   4.44254484976086E-04  1.41112146573570E-01
 cg2d: Sum(rhs),rhsMax =   4.43461606271383E-04  1.41117973412041E-01
 cg2d: Sum(rhs),rhsMax =   4.42666876401253E-04  1.41123797494639E-01
 cg2d: Sum(rhs),rhsMax =   4.41870295366202E-04  1.41129618809292E-01
 cg2d: Sum(rhs),rhsMax =   4.41071862888346E-04  1.41135437343986E-01
 cg2d: Sum(rhs),rhsMax =   4.40271578607802E-04  1.41141253086750E-01
 cg2d: Sum(rhs),rhsMax =   4.39469442154364E-04  1.41147066025629E-01
 cg2d: Sum(rhs),rhsMax =   4.38665453277915E-04  1.41152876148662E-01
 cg2d: Sum(rhs),rhsMax =   4.37859611614864E-04  1.41158683443882E-01
 cg2d: Sum(rhs),rhsMax =   4.37051916851701E-04  1.41164487899313E-01
 cg2d: Sum(rhs),rhsMax =   4.36242368591582E-04  1.41170289502987E-01
 cg2d: Sum(rhs),rhsMax =   4.35430966407359E-04  1.41176088242941E-01
 cg2d: Sum(rhs),rhsMax =   4.34617709777854E-04  1.41181884107219E-01
 cg2d: Sum(rhs),rhsMax =   4.33802598217833E-04  1.41187677083875E-01
 cg2d: Sum(rhs),rhsMax =   4.32985631150514E-04  1.41193467160972E-01
 cg2d: Sum(rhs),rhsMax =   4.32166808113672E-04  1.41199254326573E-01
 cg2d: Sum(rhs),rhsMax =   4.31346128307045E-04  1.41205038568748E-01
 cg2d: Sum(rhs),rhsMax =   4.30523591376054E-04  1.41210819875573E-01
 cg2d: Sum(rhs),rhsMax =   4.29699196651884E-04  1.41216598235126E-01
 cg2d: Sum(rhs),rhsMax =   4.28872943401020E-04  1.41222373635494E-01
 cg2d: Sum(rhs),rhsMax =   4.28044831086160E-04  1.41228146064766E-01
 cg2d: Sum(rhs),rhsMax =   4.27214858979955E-04  1.41233915511042E-01
 cg2d: Sum(rhs),rhsMax =   4.26383026353454E-04  1.41239681962422E-01
 cg2d: Sum(rhs),rhsMax =   4.25549332559965E-04  1.41245445407016E-01
 cg2d: Sum(rhs),rhsMax =   4.24713776956570E-04  1.41251205832937E-01
 cg2d: Sum(rhs),rhsMax =   4.23876358690545E-04  1.41256963228306E-01
 cg2d: Sum(rhs),rhsMax =   4.23037077041675E-04  1.41262717581248E-01
 cg2d: Sum(rhs),rhsMax =   4.22195931427685E-04  1.41268468879894E-01
 cg2d: Sum(rhs),rhsMax =   4.21352921066803E-04  1.41274217112381E-01
 cg2d: Sum(rhs),rhsMax =   4.20508045206360E-04  1.41279962266852E-01
 cg2d: Sum(rhs),rhsMax =   4.19768958153958E-04  1.41285704427663E-01
 cg2d: Sum(rhs),rhsMax =   4.19027894588281E-04  1.41291443383983E-01
 cg2d: Sum(rhs),rhsMax =   4.18285021492174E-04  1.41297179235967E-01
 cg2d: Sum(rhs),rhsMax =   4.17540330573766E-04  1.41302911966592E-01
 cg2d: Sum(rhs),rhsMax =   4.16793833116315E-04  1.41308641560820E-01
 cg2d: Sum(rhs),rhsMax =   4.16045529423797E-04  1.41314368004544E-01
 cg2d: Sum(rhs),rhsMax =   4.15295411013369E-04  1.41320091285786E-01
 cg2d: Sum(rhs),rhsMax =   4.14543468712295E-04  1.41325811393524E-01
 cg2d: Sum(rhs),rhsMax =   4.13789697539169E-04  1.41331528316742E-01
 cg2d: Sum(rhs),rhsMax =   4.13034096273951E-04  1.41337242044051E-01
 cg2d: Sum(rhs),rhsMax =   4.12276666590435E-04  1.41342952563695E-01
 cg2d: Sum(rhs),rhsMax =   4.11517409915565E-04  1.41348659863726E-01
 cg2d: Sum(rhs),rhsMax =   4.10756326934211E-04  1.41354363932183E-01
 cg2d: Sum(rhs),rhsMax =   4.09993417255039E-04  1.41360064757186E-01
 cg2d: Sum(rhs),rhsMax =   4.09228679955470E-04  1.41365762326955E-01
 cg2d: Sum(rhs),rhsMax =   4.08462113941833E-04  1.41371456629766E-01
 cg2d: Sum(rhs),rhsMax =   4.07693718642305E-04  1.41377147653913E-01
 cg2d: Sum(rhs),rhsMax =   4.06923493429153E-04  1.41382835387677E-01
 cg2d: Sum(rhs),rhsMax =   4.06151438137334E-04  1.41388519819325E-01
 cg2d: Sum(rhs),rhsMax =   4.05377552595302E-04  1.41394200937110E-01
 cg2d: Sum(rhs),rhsMax =   4.04601836606600E-04  1.41399878729293E-01
 cg2d: Sum(rhs),rhsMax =   4.03824289905320E-04  1.41405553184146E-01
 cg2d: Sum(rhs),rhsMax =   4.03044912346561E-04  1.41411224289950E-01
 cg2d: Sum(rhs),rhsMax =   4.02263703672981E-04  1.41416892034999E-01
 cg2d: Sum(rhs),rhsMax =   4.01480663729623E-04  1.41422556407595E-01
 cg2d: Sum(rhs),rhsMax =   4.00695792253756E-04  1.41428217396044E-01
 cg2d: Sum(rhs),rhsMax =   3.99909089390538E-04  1.41433874988657E-01
 cg2d: Sum(rhs),rhsMax =   3.99120554989142E-04  1.41439529173754E-01
 cg2d: Sum(rhs),rhsMax =   3.98330189139999E-04  1.41445179939655E-01
 cg2d: Sum(rhs),rhsMax =   3.97537991763005E-04  1.41450827274692E-01
 cg2d: Sum(rhs),rhsMax =   3.96743962969744E-04  1.41456471167203E-01
 cg2d: Sum(rhs),rhsMax =   3.95948102982563E-04  1.41462111605531E-01
 cg2d: Sum(rhs),rhsMax =   3.95150411825105E-04  1.41467748578029E-01
 cg2d: Sum(rhs),rhsMax =   3.94350889683094E-04  1.41473382073054E-01
 cg2d: Sum(rhs),rhsMax =   3.93549536631119E-04  1.41479012078970E-01
 cg2d: Sum(rhs),rhsMax =   3.92746353134206E-04  1.41484638584151E-01
 cg2d: Sum(rhs),rhsMax =   3.91941339338276E-04  1.41490261576973E-01
 cg2d: Sum(rhs),rhsMax =   3.91134495646593E-04  1.41495881045824E-01
 cg2d: Sum(rhs),rhsMax =   3.90325822292842E-04  1.41501496979093E-01
 cg2d: Sum(rhs),rhsMax =   3.89515319820831E-04  1.41507109365181E-01
(PID.TID 0000.0001)      cg2d_init_res =   4.92526498042905E-04
(PID.TID 0000.0001)      cg2d_iters(min,last) =      -1      68
(PID.TID 0000.0001)      cg2d_last_res =   9.31827836203119E-08
(PID.TID 0000.0001) // =======================================================
(PID.TID 0000.0001) // Begin MONITOR dynamic field statistics
(PID.TID 0000.0001) // =======================================================
(PID.TID 0000.0001) %MON time_tsnumber                =                 21024
(PID.TID 0000.0001) %MON time_secondsf                =   2.5228800000000E+07
(PID.TID 0000.0001) %MON dynstat_eta_max              =   4.6973352626379E-02
(PID.TID 0000.0001) %MON dynstat_eta_min              =  -2.3191622856222E-02
(PID.TID 0000.0001) %MON dynstat_eta_mean             =  -2.7503208237814E-07
(PID.TID 0000.0001) %MON dynstat_eta_sd               =   1.8193144200768E-02
(PID.TID 0000.0001) %MON dynstat_eta_del2             =   1.7570135671791E-05
(PID.TID 0000.0001) %MON dynstat_uvel_max             =   3.1416482287412E-02
(PID.TID 0000.0001) %MON dynstat_uvel_min             =  -1.5811825291758E-02
(PID.TID 0000.0001) %MON dynstat_uvel_mean            =  -1.3156265515688E-07
(PID.TID 0000.0001) %MON dynstat_uvel_sd              =   7.1337904265260E-03
(PID.TID 0000.0001) %MON dynstat_uvel_del2            =   8.1790356043913E-06
(PID.TID 0000.0001) %MON dynstat_vvel_max             =   8.4855510240556E-02
(PID.TID 0000.0001) %MON dynstat_vvel_min             =  -2.9045984988832E-02
(PID.TID 0000.0001) %MON dynstat_vvel_mean            =  -9.0229597516324E-09
(PID.TID 0000.0001) %MON dynstat_vvel_sd              =   1.4723702456591E-02
(PID.TID 0000.0001) %MON dynstat_vvel_del2            =   7.3978724515246E-05
(PID.TID 0000.0001) %MON dynstat_wvel_max             =   5.3203719599696E-09
(PID.TID 0000.0001) %MON dynstat_wvel_min             =  -7.5470698409481E-09
(PID.TID 0000.0001) %MON dynstat_wvel_mean            =  -5.4815195148371E-22
(PID.TID 0000.0001) %MON dynstat_wvel_sd              =   3.1482086078282E-09
(PID.TID 0000.0001) %MON dynstat_wvel_del2            =   9.8819131855712E-13
(PID.TID 0000.0001) %MON dynstat_theta_max            =   2.0000000000000E+01
(PID.TID 0000.0001) %MON dynstat_theta_min            =   2.0000000000000E+01
(PID.TID 0000.0001) %MON dynstat_theta_mean           =   2.0000000000000E+01
(PID.TID 0000.0001) %MON dynstat_theta_sd             =   0.0000000000000E+00
(PID.TID 0000.0001) %MON dynstat_theta_del2           =   0.0000000000000E+00
(PID.TID 0000.0001) %MON dynstat_salt_max             =   3.0000000000000E+01
(PID.TID 0000.0001) %MON dynstat_salt_min             =   3.0000000000000E+01
(PID.TID 0000.0001) %MON dynstat_salt_mean            =   3.0000000000000E+01
(PID.TID 0000.0001) %MON dynstat_salt_sd              =   0.0000000000000E+00
(PID.TID 0000.0001) %MON dynstat_salt_del2            =   0.0000000000000E+00
(PID.TID 0000.0001) %MON trAdv_CFL_u_max              =   1.8849115421846E-03
(PID.TID 0000.0001) %MON trAdv_CFL_v_max              =   5.0911267385461E-03
(PID.TID 0000.0001) %MON trAdv_CFL_w_max              =   1.2774606419960E-09
(PID.TID 0000.0001) %MON advcfl_uvel_max              =   1.8849889372447E-03
(PID.TID 0000.0001) %MON advcfl_vvel_max              =   5.0913306144334E-03
(PID.TID 0000.0001) %MON advcfl_wvel_max              =   3.6225935236551E-09
(PID.TID 0000.0001) %MON advcfl_W_hf_max              =   0.0000000000000E+00
(PID.TID 0000.0001) %MON pe_b_mean                    =   3.2470167656184E-07
(PID.TID 0000.0001) %MON ke_max                       =   3.5970393402237E-03
(PID.TID 0000.0001) %MON ke_mean                      =   1.3160853678280E-04
(PID.TID 0000.0001) %MON ke_vol                       =   7.2000000000000E+15
(PID.TID 0000.0001) %MON vort_r_min                   =  -1.4623558839141E-06
(PID.TID 0000.0001) %MON vort_r_max                   =   2.3518513966485E-06
(PID.TID 0000.0001) %MON vort_a_mean                  =   1.0600000000000E-04
(PID.TID 0000.0001) %MON vort_a_sd                    =   3.5366096183527E-06
(PID.TID 0000.0001) %MON vort_p_mean                  =   1.1130000000000E-04
(PID.TID 0000.0001) %MON vort_p_sd                    =   4.1152310307196E-05
(PID.TID 0000.0001) %MON surfExpan_theta_mean         =  -1.0961937530535E-20
(PID.TID 0000.0001) %MON surfExpan_salt_mean          =  -1.6443222092575E-20
(PID.TID 0000.0001) // =======================================================
(PID.TID 0000.0001) // End MONITOR dynamic field statistics
(PID.TID 0000.0001) // =======================================================
 cg2d: Sum(rhs),rhsMax =   3.88702988528178E-04  1.41512718192493E-01
 cg2d: Sum(rhs),rhsMax =   3.87888828853506E-04  1.41518323449443E-01
 cg2d: Sum(rhs),rhsMax =   3.87072841366738E-04  1.41523925124453E-01
 cg2d: Sum(rhs),rhsMax =   3.86255026484345E-04  1.41529523205946E-01
 cg2d: Sum(rhs),rhsMax =   3.85435384870358E-04  1.41535117682359E-01
 cg2d: Sum(rhs),rhsMax =   3.84613917114345E-04  1.41540708542135E-01
 cg2d: Sum(rhs),rhsMax =   3.83790623797120E-04  1.41546295773719E-01
 cg2d: Sum(rhs),rhsMax =   3.82965505571337E-04  1.41551879365567E-01
 cg2d: Sum(rhs),rhsMax =   3.82138563172558E-04  1.41557459306145E-01
 cg2d: Sum(rhs),rhsMax =   3.81309797354193E-04  1.41563035583920E-01
 cg2d: Sum(rhs),rhsMax =   3.80479208901163E-04  1.41568608187371E-01
 cg2d: Sum(rhs),rhsMax =   3.79646798522963E-04  1.41574177104982E-01
 cg2d: Sum(rhs),rhsMax =   3.78812567141727E-04  1.41579742325245E-01
 cg2d: Sum(rhs),rhsMax =   3.77976515575609E-04  1.41585303836659E-01
 cg2d: Sum(rhs),rhsMax =   3.77138644782679E-04  1.41590861627731E-01
 cg2d: Sum(rhs),rhsMax =   3.76298955689127E-04  1.41596415686974E-01
 cg2d: Sum(rhs),rhsMax =   3.75457449264155E-04  1.41601966002911E-01
 cg2d: Sum(rhs),rhsMax =   3.74614126566695E-04  1.41607512564070E-01
 cg2d: Sum(rhs),rhsMax =   3.73768988596564E-04  1.41613055358987E-01
 cg2d: Sum(rhs),rhsMax =   3.72922036349210E-04  1.41618594376205E-01
 cg2d: Sum(rhs),rhsMax =   3.72073271096093E-04  1.41624129604276E-01
 cg2d: Sum(rhs),rhsMax =   3.71222693933701E-04  1.41629661031760E-01
 cg2d: Sum(rhs),rhsMax =   3.70370306021966E-04  1.41635188647220E-01
 cg2d: Sum(rhs),rhsMax =   3.69516108583295E-04  1.41640712439234E-01
 cg2d: Sum(rhs),rhsMax =   3.68660102715186E-04  1.41646232396380E-01
 cg2d: Sum(rhs),rhsMax =   3.67802289933565E-04  1.41651748507250E-01
 cg2d: Sum(rhs),rhsMax =   3.66942671473103E-04  1.41657260760439E-01
 cg2d: Sum(rhs),rhsMax =   3.66081248649566E-04  1.41662769144552E-01
 cg2d: Sum(rhs),rhsMax =   3.65218022842231E-04  1.41668273648202E-01
 cg2d: Sum(rhs),rhsMax =   3.64352995374745E-04  1.41673774260009E-01
 cg2d: Sum(rhs),rhsMax =   3.63486167803812E-04  1.41679270968600E-01
 cg2d: Sum(rhs),rhsMax =   3.62617541669864E-04  1.41684763762609E-01
 cg2d: Sum(rhs),rhsMax =   3.61747118429542E-04  1.41690252630684E-01
 cg2d: Sum(rhs),rhsMax =   3.60874899457310E-04  1.41695737561473E-01
 cg2d: Sum(rhs),rhsMax =   3.60000886571420E-04  1.41701218543636E-01
 cg2d: Sum(rhs),rhsMax =   3.59125081215959E-04  1.41706695565840E-01
 cg2d: Sum(rhs),rhsMax =   3.58247485061076E-04  1.41712168616759E-01
 cg2d: Sum(rhs),rhsMax =   3.57368099711997E-04  1.41717637685079E-01
 cg2d: Sum(rhs),rhsMax =   3.56486926962500E-04  1.41723102759487E-01
 cg2d: Sum(rhs),rhsMax =   3.55603968520971E-04  1.41728563828687E-01
 cg2d: Sum(rhs),rhsMax =   3.54719226209137E-04  1.41734020881381E-01
 cg2d: Sum(rhs),rhsMax =   3.53832701648263E-04  1.41739473906287E-01
 cg2d: Sum(rhs),rhsMax =   3.52944396768223E-04  1.41744922892127E-01
 cg2d: Sum(rhs),rhsMax =   3.52054313415510E-04  1.41750367827635E-01
 cg2d: Sum(rhs),rhsMax =   3.51162453529075E-04  1.41755808701547E-01
 cg2d: Sum(rhs),rhsMax =   3.50362581099560E-04  1.41761245691377E-01
 cg2d: Sum(rhs),rhsMax =   3.49561165322946E-04  1.41766678399540E-01
 cg2d: Sum(rhs),rhsMax =   3.48758040657202E-04  1.41772107020400E-01
 cg2d: Sum(rhs),rhsMax =   3.47953309267343E-04  1.41777531542571E-01
 cg2d: Sum(rhs),rhsMax =   3.47146977943385E-04  1.41782951948107E-01
 cg2d: Sum(rhs),rhsMax =   3.46339053489006E-04  1.41788368224375E-01
 cg2d: Sum(rhs),rhsMax =   3.45529530852377E-04  1.41793780359176E-01
 cg2d: Sum(rhs),rhsMax =   3.44718406152021E-04  1.41799188342201E-01
 cg2d: Sum(rhs),rhsMax =   3.43905678565524E-04  1.41804592162578E-01
 cg2d: Sum(rhs),rhsMax =   3.43091350617795E-04  1.41809991809466E-01
 cg2d: Sum(rhs),rhsMax =   3.42275426845042E-04  1.41815387271670E-01
 cg2d: Sum(rhs),rhsMax =   3.41457911684188E-04  1.41820778537943E-01
 cg2d: Sum(rhs),rhsMax =   3.40638808868443E-04  1.41826165597016E-01
 cg2d: Sum(rhs),rhsMax =   3.39818121321955E-04  1.41831548437691E-01
 cg2d: Sum(rhs),rhsMax =   3.38995851481041E-04  1.41836927048827E-01
 cg2d: Sum(rhs),rhsMax =   3.38172001805474E-04  1.41842301419319E-01
 cg2d: Sum(rhs),rhsMax =   3.37346574783952E-04  1.41847671538079E-01
 cg2d: Sum(rhs),rhsMax =   3.36519573398805E-04  1.41853037394013E-01
 cg2d: Sum(rhs),rhsMax =   3.35691000662050E-04  1.41858398976023E-01
 cg2d: Sum(rhs),rhsMax =   3.34860859628055E-04  1.41863756273012E-01
 cg2d: Sum(rhs),rhsMax =   3.34029153239720E-04  1.41869109273889E-01
 cg2d: Sum(rhs),rhsMax =   3.33195884588401E-04  1.41874457967575E-01
 cg2d: Sum(rhs),rhsMax =   3.32361056452450E-04  1.41879802343002E-01
 cg2d: Sum(rhs),rhsMax =   3.31524671983554E-04  1.41885142389115E-01
 cg2d: Sum(rhs),rhsMax =   3.30686734193807E-04  1.41890478094869E-01
 cg2d: Sum(rhs),rhsMax =   3.29847246140308E-04  1.41895809449224E-01
 cg2d: Sum(rhs),rhsMax =   3.29006210711501E-04  1.41901136441152E-01
(PID.TID 0000.0001)      cg2d_init_res =   4.85843209549042E-04
(PID.TID 0000.0001)      cg2d_iters(min,last) =      -1      69
(PID.TID 0000.0001)      cg2d_last_res =   8.90451289343097E-08
(PID.TID 0000.0001) // =======================================================
(PID.TID 0000.0001) // Begin MONITOR dynamic field statistics
(PID.TID 0000.0001) // =======================================================
(PID.TID 0000.0001) %MON time_tsnumber                =                 21096
(PID.TID 0000.0001) %MON time_secondsf                =   2.5315200000000E+07
(PID.TID 0000.0001) %MON dynstat_eta_max              =   4.7346969490244E-02
(PID.TID 0000.0001) %MON dynstat_eta_min              =  -2.3083538371002E-02
(PID.TID 0000.0001) %MON dynstat_eta_mean             =  -2.3284269441273E-07
(PID.TID 0000.0001) %MON dynstat_eta_sd               =   1.8289516289723E-02
(PID.TID 0000.0001) %MON dynstat_eta_del2             =   1.7589710431614E-05
(PID.TID 0000.0001) %MON dynstat_uvel_max             =   3.1508306046771E-02
(PID.TID 0000.0001) %MON dynstat_uvel_min             =  -1.5875778422417E-02
(PID.TID 0000.0001) %MON dynstat_uvel_mean            =  -1.2361328076415E-07
(PID.TID 0000.0001) %MON dynstat_uvel_sd              =   7.1313300369634E-03
(PID.TID 0000.0001) %MON dynstat_uvel_del2            =   8.1810105724832E-06
(PID.TID 0000.0001) %MON dynstat_vvel_max             =   8.5095459522003E-02
(PID.TID 0000.0001) %MON dynstat_vvel_min             =  -2.9010931331446E-02
(PID.TID 0000.0001) %MON dynstat_vvel_mean            =  -7.9271297648146E-09
(PID.TID 0000.0001) %MON dynstat_vvel_sd              =   1.4763089309951E-02
(PID.TID 0000.0001) %MON dynstat_vvel_del2            =   7.4116511942858E-05
(PID.TID 0000.0001) %MON dynstat_wvel_max             =   5.1768272154732E-09
(PID.TID 0000.0001) %MON dynstat_wvel_min             =  -7.6129008177668E-09
(PID.TID 0000.0001) %MON dynstat_wvel_mean            =  -3.4928674115993E-21
(PID.TID 0000.0001) %MON dynstat_wvel_sd              =   3.1320857213853E-09
(PID.TID 0000.0001) %MON dynstat_wvel_del2            =   9.8073856675018E-13
(PID.TID 0000.0001) %MON dynstat_theta_max            =   2.0000000000000E+01
(PID.TID 0000.0001) %MON dynstat_theta_min            =   2.0000000000000E+01
(PID.TID 0000.0001) %MON dynstat_theta_mean           =   2.0000000000000E+01
(PID.TID 0000.0001) %MON dynstat_theta_sd             =   0.0000000000000E+00
(PID.TID 0000.0001) %MON dynstat_theta_del2           =   0.0000000000000E+00
(PID.TID 0000.0001) %MON dynstat_salt_max             =   3.0000000000000E+01
(PID.TID 0000.0001) %MON dynstat_salt_min             =   3.0000000000000E+01
(PID.TID 0000.0001) %MON dynstat_salt_mean            =   3.0000000000000E+01
(PID.TID 0000.0001) %MON dynstat_salt_sd              =   0.0000000000000E+00
(PID.TID 0000.0001) %MON dynstat_salt_del2            =   0.0000000000000E+00
(PID.TID 0000.0001) %MON trAdv_CFL_u_max              =   1.8904228209073E-03
(PID.TID 0000.0001) %MON trAdv_CFL_v_max              =   5.1055317844840E-03
(PID.TID 0000.0001) %MON trAdv_CFL_w_max              =   1.2430118529126E-09
(PID.TID 0000.0001) %MON advcfl_uvel_max              =   1.8904983628063E-03
(PID.TID 0000.0001) %MON advcfl_vvel_max              =   5.1057275713202E-03
(PID.TID 0000.0001) %MON advcfl_wvel_max              =   3.6541923925281E-09
(PID.TID 0000.0001) %MON advcfl_W_hf_max              =   0.0000000000000E+00
(PID.TID 0000.0001) %MON pe_b_mean                    =   3.2815078444911E-07
(PID.TID 0000.0001) %MON ke_max                       =   3.6176793864621E-03
(PID.TID 0000.0001) %MON ke_mean                      =   1.3216229809181E-04
(PID.TID 0000.0001) %MON ke_vol                       =   7.2000000000000E+15
(PID.TID 0000.0001) %MON vort_r_min                   =  -1.4645449264295E-06
(PID.TID 0000.0001) %MON vort_r_max                   =   2.3581671911096E-06
(PID.TID 0000.0001) %MON vort_a_mean                  =   1.0600000000000E-04
(PID.TID 0000.0001) %MON vort_a_sd                    =   3.5366776751591E-06
(PID.TID 0000.0001) %MON vort_p_mean                  =   1.1130000000000E-04
(PID.TID 0000.0001) %MON vort_p_sd                    =   4.1152267261723E-05
(PID.TID 0000.0001) %MON surfExpan_theta_mean         =  -6.9858666999304E-20
(PID.TID 0000.0001) %MON surfExpan_salt_mean          =  -1.0478800049896E-19
(PID.TID 0000.0001) // =======================================================
(PID.TID 0000.0001) // End MONITOR dynamic field statistics
(PID.TID 0000.0001) // =======================================================
 cg2d: Sum(rhs),rhsMax =   3.28163631115393E-04  1.41906459059630E-01
 cg2d: Sum(rhs),rhsMax =   3.27319510399459E-04  1.41911777293645E-01
 cg2d: Sum(rhs),rhsMax =   3.26473851722874E-04  1.41917091132194E-01
 cg2d: Sum(rhs),rhsMax =   3.25626658106338E-04  1.41922400564282E-01
 cg2d: Sum(rhs),rhsMax =   3.24777932825622E-04  1.41927705578921E-01
 cg2d: Sum(rhs),rhsMax =   3.23927678944783E-04  1.41933006165137E-01
 cg2d: Sum(rhs),rhsMax =   3.23075899626268E-04  1.41938302311961E-01
 cg2d: Sum(rhs),rhsMax =   3.22222598120552E-04  1.41943594008435E-01
 cg2d: Sum(rhs),rhsMax =   3.21367777514297E-04  1.41948881243610E-01
 cg2d: Sum(rhs),rhsMax =   3.20511441202871E-04  1.41954164006543E-01
 cg2d: Sum(rhs),rhsMax =   3.19653592302145E-04  1.41959442286305E-01
 cg2d: Sum(rhs),rhsMax =   3.18794233997792E-04  1.41964716071973E-01
 cg2d: Sum(rhs),rhsMax =   3.17933369575413E-04  1.41969985352635E-01
 cg2d: Sum(rhs),rhsMax =   3.17071002362777E-04  1.41975250117386E-01
 cg2d: Sum(rhs),rhsMax =   3.16207135680909E-04  1.41980510355332E-01
 cg2d: Sum(rhs),rhsMax =   3.15341772625995E-04  1.41985766055590E-01
 cg2d: Sum(rhs),rhsMax =   3.14474916709810E-04  1.41991017207280E-01
 cg2d: Sum(rhs),rhsMax =   3.13606571229380E-04  1.41996263799538E-01
 cg2d: Sum(rhs),rhsMax =   3.12736739513198E-04  1.42001505821506E-01
 cg2d: Sum(rhs),rhsMax =   3.11865424926319E-04  1.42006743262336E-01
 cg2d: Sum(rhs),rhsMax =   3.10992630644025E-04  1.42011976111190E-01
 cg2d: Sum(rhs),rhsMax =   3.10118360258809E-04  1.42017204357239E-01
 cg2d: Sum(rhs),rhsMax =   3.09242617087141E-04  1.42022427989664E-01
 cg2d: Sum(rhs),rhsMax =   3.08365404570026E-04  1.42027646997654E-01
 cg2d: Sum(rhs),rhsMax =   3.07486726036017E-04  1.42032861370407E-01
 cg2d: Sum(rhs),rhsMax =   3.06606584865834E-04  1.42038071097134E-01
 cg2d: Sum(rhs),rhsMax =   3.05724984630236E-04  1.42043276167053E-01
 cg2d: Sum(rhs),rhsMax =   3.04841928639427E-04  1.42048476569391E-01
 cg2d: Sum(rhs),rhsMax =   3.03957420491019E-04  1.42053672293386E-01
 cg2d: Sum(rhs),rhsMax =   3.03071463480885E-04  1.42058863328287E-01
 cg2d: Sum(rhs),rhsMax =   3.02184061229187E-04  1.42064049663347E-01
 cg2d: Sum(rhs),rhsMax =   3.01295217159577E-04  1.42069231287837E-01
 cg2d: Sum(rhs),rhsMax =   3.00404934707114E-04  1.42074408191030E-01
 cg2d: Sum(rhs),rhsMax =   2.99513217362508E-04  1.42079580362214E-01
 cg2d: Sum(rhs),rhsMax =   2.98620068811866E-04  1.42084747790684E-01
 cg2d: Sum(rhs),rhsMax =   2.97725492448789E-04  1.42089910465745E-01
 cg2d: Sum(rhs),rhsMax =   2.96829491748521E-04  1.42095068376712E-01
 cg2d: Sum(rhs),rhsMax =   2.95932070400042E-04  1.42100221512912E-01
 cg2d: Sum(rhs),rhsMax =   2.95033231880576E-04  1.42105369863677E-01
 cg2d: Sum(rhs),rhsMax =   2.94132979708810E-04  1.42110513418355E-01
 cg2d: Sum(rhs),rhsMax =   2.93231317440992E-04  1.42115652166299E-01
 cg2d: Sum(rhs),rhsMax =   2.92328248718669E-04  1.42120786096874E-01
 cg2d: Sum(rhs),rhsMax =   2.91423777129209E-04  1.42125915199455E-01
 cg2d: Sum(rhs),rhsMax =   2.90517906210633E-04  1.42131039463425E-01
 cg2d: Sum(rhs),rhsMax =   2.89610639542449E-04  1.42136158878180E-01
 cg2d: Sum(rhs),rhsMax =   2.88701980681099E-04  1.42141273433126E-01
 cg2d: Sum(rhs),rhsMax =   2.87791933353921E-04  1.42146383117674E-01
 cg2d: Sum(rhs),rhsMax =   2.86880501150835E-04  1.42151487921252E-01
 cg2d: Sum(rhs),rhsMax =   2.85967687731085E-04  1.42156587833293E-01
 cg2d: Sum(rhs),rhsMax =   2.85053496541306E-04  1.42161682843243E-01
 cg2d: Sum(rhs),rhsMax =   2.84137931448772E-04  1.42166772940557E-01
 cg2d: Sum(rhs),rhsMax =   2.83220995799440E-04  1.42171858114698E-01
 cg2d: Sum(rhs),rhsMax =   2.82302693590080E-04  1.42176938355146E-01
 cg2d: Sum(rhs),rhsMax =   2.81383028319848E-04  1.42182013651383E-01
 cg2d: Sum(rhs),rhsMax =   2.80462003554058E-04  1.42187083992906E-01
 cg2d: Sum(rhs),rhsMax =   2.79539623008515E-04  1.42192149369221E-01
 cg2d: Sum(rhs),rhsMax =   2.78615890442663E-04  1.42197209769844E-01
 cg2d: Sum(rhs),rhsMax =   2.77690809441446E-04  1.42202265184304E-01
 cg2d: Sum(rhs),rhsMax =   2.76764383775926E-04  1.42207315602136E-01
 cg2d: Sum(rhs),rhsMax =   2.75836617046020E-04  1.42212361012889E-01
 cg2d: Sum(rhs),rhsMax =   2.74907512960984E-04  1.42217401406120E-01
 cg2d: Sum(rhs),rhsMax =   2.73977075209805E-04  1.42222436771397E-01
 cg2d: Sum(rhs),rhsMax =   2.73045307516276E-04  1.42227467098300E-01
 cg2d: Sum(rhs),rhsMax =   2.72112213550588E-04  1.42232492376417E-01
 cg2d: Sum(rhs),rhsMax =   2.71177797060633E-04  1.42237512595349E-01
 cg2d: Sum(rhs),rhsMax =   2.70242061748337E-04  1.42242527744705E-01
 cg2d: Sum(rhs),rhsMax =   2.69305011168446E-04  1.42247537814106E-01
 cg2d: Sum(rhs),rhsMax =   2.68366649342131E-04  1.42252542793185E-01
 cg2d: Sum(rhs),rhsMax =   2.67426979727607E-04  1.42257542671582E-01
 cg2d: Sum(rhs),rhsMax =   2.66486006135641E-04  1.42262537438950E-01
 cg2d: Sum(rhs),rhsMax =   2.65543732276726E-04  1.42267527084953E-01
 cg2d: Sum(rhs),rhsMax =   2.64600161867280E-04  1.42272511599264E-01
(PID.TID 0000.0001)      cg2d_init_res =   4.79188053592428E-04
(PID.TID 0000.0001)      cg2d_iters(min,last) =      -1      69
(PID.TID 0000.0001)      cg2d_last_res =   9.94846647349772E-08
(PID.TID 0000.0001) // =======================================================
(PID.TID 0000.0001) // Begin MONITOR dynamic field statistics
(PID.TID 0000.0001) // =======================================================
(PID.TID 0000.0001) %MON time_tsnumber                =                 21168
(PID.TID 0000.0001) %MON time_secondsf                =   2.5401600000000E+07
(PID.TID 0000.0001) %MON dynstat_eta_max              =   4.7723962774585E-02
(PID.TID 0000.0001) %MON dynstat_eta_min              =  -2.2953256112415E-02
(PID.TID 0000.0001) %MON dynstat_eta_mean             =  -1.8756107181544E-07
(PID.TID 0000.0001) %MON dynstat_eta_sd               =   1.8369073898676E-02
(PID.TID 0000.0001) %MON dynstat_eta_del2             =   1.7610546840923E-05
(PID.TID 0000.0001) %MON dynstat_uvel_max             =   3.1597441369542E-02
(PID.TID 0000.0001) %MON dynstat_uvel_min             =  -1.5943283193687E-02
(PID.TID 0000.0001) %MON dynstat_uvel_mean            =  -1.1418572731511E-07
(PID.TID 0000.0001) %MON dynstat_uvel_sd              =   7.1226447954825E-03
(PID.TID 0000.0001) %MON dynstat_uvel_del2            =   8.1793693604778E-06
(PID.TID 0000.0001) %MON dynstat_vvel_max             =   8.5324386731013E-02
(PID.TID 0000.0001) %MON dynstat_vvel_min             =  -2.8992774609171E-02
(PID.TID 0000.0001) %MON dynstat_vvel_mean            =  -6.8223306679431E-09
(PID.TID 0000.0001) %MON dynstat_vvel_sd              =   1.4801057095011E-02
(PID.TID 0000.0001) %MON dynstat_vvel_del2            =   7.4254436563307E-05
(PID.TID 0000.0001) %MON dynstat_wvel_max             =   5.0290975009557E-09
(PID.TID 0000.0001) %MON dynstat_wvel_min             =  -7.6486994221341E-09
(PID.TID 0000.0001) %MON dynstat_wvel_mean            =   1.3481602283921E-21
(PID.TID 0000.0001) %MON dynstat_wvel_sd              =   3.1163347964024E-09
(PID.TID 0000.0001) %MON dynstat_wvel_del2            =   9.8028565828800E-13
(PID.TID 0000.0001) %MON dynstat_theta_max            =   2.0000000000000E+01
(PID.TID 0000.0001) %MON dynstat_theta_min            =   2.0000000000000E+01
(PID.TID 0000.0001) %MON dynstat_theta_mean           =   2.0000000000000E+01
(PID.TID 0000.0001) %MON dynstat_theta_sd             =   0.0000000000000E+00
(PID.TID 0000.0001) %MON dynstat_theta_del2           =   0.0000000000000E+00
(PID.TID 0000.0001) %MON dynstat_salt_max             =   3.0000000000000E+01
(PID.TID 0000.0001) %MON dynstat_salt_min             =   3.0000000000000E+01
(PID.TID 0000.0001) %MON dynstat_salt_mean            =   3.0000000000000E+01
(PID.TID 0000.0001) %MON dynstat_salt_sd              =   0.0000000000000E+00
(PID.TID 0000.0001) %MON dynstat_salt_del2            =   0.0000000000000E+00
(PID.TID 0000.0001) %MON trAdv_CFL_u_max              =   1.8957735538123E-03
(PID.TID 0000.0001) %MON trAdv_CFL_v_max              =   5.1192776529874E-03
(PID.TID 0000.0001) %MON trAdv_CFL_w_max              =   1.2075449596625E-09
(PID.TID 0000.0001) %MON advcfl_uvel_max              =   1.8958464821725E-03
(PID.TID 0000.0001) %MON advcfl_vvel_max              =   5.1194632038608E-03
(PID.TID 0000.0001) %MON advcfl_wvel_max              =   3.6713757226244E-09
(PID.TID 0000.0001) %MON advcfl_W_hf_max              =   0.0000000000000E+00
(PID.TID 0000.0001) %MON pe_b_mean                    =   3.3101184128751E-07
(PID.TID 0000.0001) %MON ke_max                       =   3.6374525565094E-03
(PID.TID 0000.0001) %MON ke_mean                      =   1.3265331867919E-04
(PID.TID 0000.0001) %MON ke_vol                       =   7.2000000000000E+15
(PID.TID 0000.0001) %MON vort_r_min                   =  -1.4668427058259E-06
(PID.TID 0000.0001) %MON vort_r_max                   =   2.3641659135443E-06
(PID.TID 0000.0001) %MON vort_a_mean                  =   1.0600000000000E-04
(PID.TID 0000.0001) %MON vort_a_sd                    =   3.5367442194999E-06
(PID.TID 0000.0001) %MON vort_p_mean                  =   1.1130000000000E-04
(PID.TID 0000.0001) %MON vort_p_sd                    =   4.1152216412018E-05
(PID.TID 0000.0001) %MON surfExpan_theta_mean         =   2.6962570447924E-20
(PID.TID 0000.0001) %MON surfExpan_salt_mean          =   4.0443145129151E-20
(PID.TID 0000.0001) // =======================================================
(PID.TID 0000.0001) // End MONITOR dynamic field statistics
(PID.TID 0000.0001) // =======================================================
 cg2d: Sum(rhs),rhsMax =   2.63655298597143E-04  1.42277490971568E-01
 cg2d: Sum(rhs),rhsMax =   2.62709146252260E-04  1.42282465191560E-01
 cg2d: Sum(rhs),rhsMax =   2.61761708511663E-04  1.42287434248947E-01
 cg2d: Sum(rhs),rhsMax =   2.60812989213144E-04  1.42292398133444E-01
 cg2d: Sum(rhs),rhsMax =   2.59949073860549E-04  1.42297356976908E-01
 cg2d: Sum(rhs),rhsMax =   2.59083797550071E-04  1.42302310506197E-01
 cg2d: Sum(rhs),rhsMax =   2.58217485099192E-04  1.42307258812858E-01
 cg2d: Sum(rhs),rhsMax =   2.57350064392676E-04  1.42312201910156E-01
 cg2d: Sum(rhs),rhsMax =   2.56481534200293E-04  1.42317139786149E-01
 cg2d: Sum(rhs),rhsMax =   2.55611897760966E-04  1.42322072428016E-01
 cg2d: Sum(rhs),rhsMax =   2.54741156099964E-04  1.42326999824805E-01
 cg2d: Sum(rhs),rhsMax =   2.53869309517406E-04  1.42331921966519E-01
 cg2d: Sum(rhs),rhsMax =   2.52996359794424E-04  1.42336838843285E-01
 cg2d: Sum(rhs),rhsMax =   2.52122310285384E-04  1.42341750445057E-01
 cg2d: Sum(rhs),rhsMax =   2.51247165049132E-04  1.42346656761652E-01
 cg2d: Sum(rhs),rhsMax =   2.50370928052888E-04  1.42351557782854E-01
 cg2d: Sum(rhs),rhsMax =   2.49493602942705E-04  1.42356453498473E-01
 cg2d: Sum(rhs),rhsMax =   2.48615192821148E-04  1.42361343898363E-01
 cg2d: Sum(rhs),rhsMax =   2.47735700939467E-04  1.42366228972412E-01
 cg2d: Sum(rhs),rhsMax =   2.46855130097365E-04  1.42371108710530E-01
 cg2d: Sum(rhs),rhsMax =   2.45973483587391E-04  1.42375983102633E-01
 cg2d: Sum(rhs),rhsMax =   2.45090764625123E-04  1.42380852138644E-01
 cg2d: Sum(rhs),rhsMax =   2.44206976403367E-04  1.42385715808486E-01
 cg2d: Sum(rhs),rhsMax =   2.43322122114557E-04  1.42390574102093E-01
 cg2d: Sum(rhs),rhsMax =   2.42436205096553E-04  1.42395427009407E-01
 cg2d: Sum(rhs),rhsMax =   2.41549228455155E-04  1.42400274520384E-01
 cg2d: Sum(rhs),rhsMax =   2.40661195429434E-04  1.42405116624992E-01
 cg2d: Sum(rhs),rhsMax =   2.39772109135184E-04  1.42409953313217E-01
 cg2d: Sum(rhs),rhsMax =   2.38881972764326E-04  1.42414784575049E-01
 cg2d: Sum(rhs),rhsMax =   2.37990789503022E-04  1.42419610400497E-01
 cg2d: Sum(rhs),rhsMax =   2.37098562412085E-04  1.42424430779579E-01
 cg2d: Sum(rhs),rhsMax =   2.36205294695009E-04  1.42429245702321E-01
 cg2d: Sum(rhs),rhsMax =   2.35310989541072E-04  1.42434055158761E-01
 cg2d: Sum(rhs),rhsMax =   2.34415649894345E-04  1.42438859138952E-01
 cg2d: Sum(rhs),rhsMax =   2.33519279104383E-04  1.42443657632954E-01
 cg2d: Sum(rhs),rhsMax =   2.32621880129181E-04  1.42448450630840E-01
 cg2d: Sum(rhs),rhsMax =   2.31723456318516E-04  1.42453238122695E-01
 cg2d: Sum(rhs),rhsMax =   2.30824010486880E-04  1.42458020098616E-01
 cg2d: Sum(rhs),rhsMax =   2.29923545825131E-04  1.42462796548710E-01
 cg2d: Sum(rhs),rhsMax =   2.29022065468934E-04  1.42467567463096E-01
 cg2d: Sum(rhs),rhsMax =   2.28119572513941E-04  1.42472332831908E-01
 cg2d: Sum(rhs),rhsMax =   2.27216069984699E-04  1.42477092645287E-01
 cg2d: Sum(rhs),rhsMax =   2.26311561016916E-04  1.42481846893389E-01
 cg2d: Sum(rhs),rhsMax =   2.25406048538331E-04  1.42486595566379E-01
 cg2d: Sum(rhs),rhsMax =   2.24499535668910E-04  1.42491338654435E-01
 cg2d: Sum(rhs),rhsMax =   2.23592025547110E-04  1.42496076147749E-01
 cg2d: Sum(rhs),rhsMax =   2.22683520979961E-04  1.42500808036520E-01
 cg2d: Sum(rhs),rhsMax =   2.21774025197254E-04  1.42505534310963E-01
 cg2d: Sum(rhs),rhsMax =   2.20863541133869E-04  1.42510254961301E-01
 cg2d: Sum(rhs),rhsMax =   2.19952071798224E-04  1.42514969977773E-01
 cg2d: Sum(rhs),rhsMax =   2.19039620176495E-04  1.42519679350627E-01
 cg2d: Sum(rhs),rhsMax =   2.18126189409003E-04  1.42524383070123E-01
 cg2d: Sum(rhs),rhsMax =   2.17211782268825E-04  1.42529081126535E-01
 cg2d: Sum(rhs),rhsMax =   2.16296401815684E-04  1.42533773510147E-01
 cg2d: Sum(rhs),rhsMax =   2.15380051035024E-04  1.42538460211256E-01
 cg2d: Sum(rhs),rhsMax =   2.14462732885778E-04  1.42543141220168E-01
 cg2d: Sum(rhs),rhsMax =   2.13644270750995E-04  1.42547816807500E-01
 cg2d: Sum(rhs),rhsMax =   2.12825265490408E-04  1.42552486451667E-01
 cg2d: Sum(rhs),rhsMax =   2.12005333128840E-04  1.42557150323400E-01
 cg2d: Sum(rhs),rhsMax =   2.11184635214500E-04  1.42561808472485E-01
 cg2d: Sum(rhs),rhsMax =   2.10363144850314E-04  1.42566460880036E-01
 cg2d: Sum(rhs),rhsMax =   2.09540875661610E-04  1.42571107540806E-01
 cg2d: Sum(rhs),rhsMax =   2.08717825802241E-04  1.42575748440127E-01
 cg2d: Sum(rhs),rhsMax =   2.07893998935611E-04  1.42580383570857E-01
 cg2d: Sum(rhs),rhsMax =   2.07069396841061E-04  1.42585012922253E-01
 cg2d: Sum(rhs),rhsMax =   2.06244022219665E-04  1.42589636485488E-01
 cg2d: Sum(rhs),rhsMax =   2.05417877255629E-04  1.42594254250606E-01
 cg2d: Sum(rhs),rhsMax =   2.04590964110258E-04  1.42598866208214E-01
 cg2d: Sum(rhs),rhsMax =   2.03763285133989E-04  1.42603472348667E-01
 cg2d: Sum(rhs),rhsMax =   2.02934842498292E-04  1.42608072662503E-01
 cg2d: Sum(rhs),rhsMax =   2.02105638247814E-04  1.42612667140199E-01
 cg2d: Sum(rhs),rhsMax =   2.01275674680758E-04  1.42617255772286E-01
(PID.TID 0000.0001)      cg2d_init_res =   4.72720279854951E-04
(PID.TID 0000.0001)      cg2d_iters(min,last) =      -1      71
(PID.TID 0000.0001)      cg2d_last_res =   9.63192019240264E-08
(PID.TID 0000.0001) // =======================================================
(PID.TID 0000.0001) // Begin MONITOR dynamic field statistics
(PID.TID 0000.0001) // =======================================================
(PID.TID 0000.0001) %MON time_tsnumber                =                 21240
(PID.TID 0000.0001) %MON time_secondsf                =   2.5488000000000E+07
(PID.TID 0000.0001) %MON dynstat_eta_max              =   4.8099739705132E-02
(PID.TID 0000.0001) %MON dynstat_eta_min              =  -2.2802396003144E-02
(PID.TID 0000.0001) %MON dynstat_eta_mean             =  -1.4293913932228E-07
(PID.TID 0000.0001) %MON dynstat_eta_sd               =   1.8431077196902E-02
(PID.TID 0000.0001) %MON dynstat_eta_del2             =   1.7632432090064E-05
(PID.TID 0000.0001) %MON dynstat_uvel_max             =   3.1682990072346E-02
(PID.TID 0000.0001) %MON dynstat_uvel_min             =  -1.6009584650015E-02
(PID.TID 0000.0001) %MON dynstat_uvel_mean            =  -1.0340484568211E-07
(PID.TID 0000.0001) %MON dynstat_uvel_sd              =   7.1078902995635E-03
(PID.TID 0000.0001) %MON dynstat_uvel_del2            =   8.1743266899476E-06
(PID.TID 0000.0001) %MON dynstat_vvel_max             =   8.5539776906588E-02
(PID.TID 0000.0001) %MON dynstat_vvel_min             =  -2.8991906450576E-02
(PID.TID 0000.0001) %MON dynstat_vvel_mean            =  -5.7184564105669E-09
(PID.TID 0000.0001) %MON dynstat_vvel_sd              =   1.4837150520846E-02
(PID.TID 0000.0001) %MON dynstat_vvel_del2            =   7.4390929180753E-05
(PID.TID 0000.0001) %MON dynstat_wvel_max             =   4.8732478707097E-09
(PID.TID 0000.0001) %MON dynstat_wvel_min             =  -7.6586608757498E-09
(PID.TID 0000.0001) %MON dynstat_wvel_mean            =   7.6640036341915E-22
(PID.TID 0000.0001) %MON dynstat_wvel_sd              =   3.1012845629780E-09
(PID.TID 0000.0001) %MON dynstat_wvel_del2            =   9.7741848618466E-13
(PID.TID 0000.0001) %MON dynstat_theta_max            =   2.0000000000000E+01
(PID.TID 0000.0001) %MON dynstat_theta_min            =   2.0000000000000E+01
(PID.TID 0000.0001) %MON dynstat_theta_mean           =   2.0000000000000E+01
(PID.TID 0000.0001) %MON dynstat_theta_sd             =   0.0000000000000E+00
(PID.TID 0000.0001) %MON dynstat_theta_del2           =   0.0000000000000E+00
(PID.TID 0000.0001) %MON dynstat_salt_max             =   3.0000000000000E+01
(PID.TID 0000.0001) %MON dynstat_salt_min             =   3.0000000000000E+01
(PID.TID 0000.0001) %MON dynstat_salt_mean            =   3.0000000000000E+01
(PID.TID 0000.0001) %MON dynstat_salt_sd              =   0.0000000000000E+00
(PID.TID 0000.0001) %MON dynstat_salt_del2            =   0.0000000000000E+00
(PID.TID 0000.0001) %MON trAdv_CFL_u_max              =   1.9009098251594E-03
(PID.TID 0000.0001) %MON trAdv_CFL_v_max              =   5.1322133413879E-03
(PID.TID 0000.0001) %MON trAdv_CFL_w_max              =   1.1701010651886E-09
(PID.TID 0000.0001) %MON advcfl_uvel_max              =   1.9009794043407E-03
(PID.TID 0000.0001) %MON advcfl_vvel_max              =   5.1323866143953E-03
(PID.TID 0000.0001) %MON advcfl_wvel_max              =   3.6761572203599E-09
(PID.TID 0000.0001) %MON advcfl_W_hf_max              =   0.0000000000000E+00
(PID.TID 0000.0001) %MON pe_b_mean                    =   3.3325021913209E-07
(PID.TID 0000.0001) %MON ke_max                       =   3.6561358037896E-03
(PID.TID 0000.0001) %MON ke_mean                      =   1.3307604388230E-04
(PID.TID 0000.0001) %MON ke_vol                       =   7.2000000000000E+15
(PID.TID 0000.0001) %MON vort_r_min                   =  -1.4692319995407E-06
(PID.TID 0000.0001) %MON vort_r_max                   =   2.3696151626091E-06
(PID.TID 0000.0001) %MON vort_a_mean                  =   1.0600000000000E-04
(PID.TID 0000.0001) %MON vort_a_sd                    =   3.5368084984625E-06
(PID.TID 0000.0001) %MON vort_p_mean                  =   1.1130000000000E-04
(PID.TID 0000.0001) %MON vort_p_sd                    =   4.1152158311192E-05
(PID.TID 0000.0001) %MON surfExpan_theta_mean         =   1.5329327930481E-20
(PID.TID 0000.0001) %MON surfExpan_salt_mean          =   2.2995255082808E-20
(PID.TID 0000.0001) // =======================================================
(PID.TID 0000.0001) // End MONITOR dynamic field statistics
(PID.TID 0000.0001) // =======================================================
 cg2d: Sum(rhs),rhsMax =   2.00444953973897E-04  1.42621838549276E-01
 cg2d: Sum(rhs),rhsMax =   1.99613478279206E-04  1.42626415461703E-01
 cg2d: Sum(rhs),rhsMax =   1.98781249893993E-04  1.42630986500103E-01
 cg2d: Sum(rhs),rhsMax =   1.97948270729311E-04  1.42635551655027E-01
 cg2d: Sum(rhs),rhsMax =   1.97114543212861E-04  1.42640110917035E-01
 cg2d: Sum(rhs),rhsMax =   1.96280069516782E-04  1.42644664276703E-01
 cg2d: Sum(rhs),rhsMax =   1.95444851498096E-04  1.42649211724618E-01
 cg2d: Sum(rhs),rhsMax =   1.94608891629498E-04  1.42653753251384E-01
 cg2d: Sum(rhs),rhsMax =   1.93772191811478E-04  1.42658288847615E-01
 cg2d: Sum(rhs),rhsMax =   1.92934754158083E-04  1.42662818503940E-01
 cg2d: Sum(rhs),rhsMax =   1.92096580957506E-04  1.42667342211003E-01
 cg2d: Sum(rhs),rhsMax =   1.91257674229693E-04  1.42671859959456E-01
 cg2d: Sum(rhs),rhsMax =   1.90418036085251E-04  1.42676371739962E-01
 cg2d: Sum(rhs),rhsMax =   1.89577668611009E-04  1.42680877543202E-01
 cg2d: Sum(rhs),rhsMax =   1.88736573939213E-04  1.42685377359865E-01
 cg2d: Sum(rhs),rhsMax =   1.87894754139892E-04  1.42689871180654E-01
 cg2d: Sum(rhs),rhsMax =   1.87052211246486E-04  1.42694358996284E-01
 cg2d: Sum(rhs),rhsMax =   1.86208947358628E-04  1.42698840797485E-01
 cg2d: Sum(rhs),rhsMax =   1.85364964584327E-04  1.42703316574997E-01
 cg2d: Sum(rhs),rhsMax =   1.84520264995780E-04  1.42707786319575E-01
 cg2d: Sum(rhs),rhsMax =   1.83674850482876E-04  1.42712250021986E-01
 cg2d: Sum(rhs),rhsMax =   1.82828723389582E-04  1.42716707673010E-01
 cg2d: Sum(rhs),rhsMax =   1.81981885565767E-04  1.42721159263439E-01
 cg2d: Sum(rhs),rhsMax =   1.81134339117371E-04  1.42725604784079E-01
 cg2d: Sum(rhs),rhsMax =   1.80286086020743E-04  1.42730044225748E-01
 cg2d: Sum(rhs),rhsMax =   1.79437128310533E-04  1.42734477579279E-01
 cg2d: Sum(rhs),rhsMax =   1.78587467997134E-04  1.42738904835514E-01
 cg2d: Sum(rhs),rhsMax =   1.77737107303177E-04  1.42743325985310E-01
 cg2d: Sum(rhs),rhsMax =   1.76886048065478E-04  1.42747741019539E-01
 cg2d: Sum(rhs),rhsMax =   1.76034292247596E-04  1.42752149929082E-01
 cg2d: Sum(rhs),rhsMax =   1.75181842069615E-04  1.42756552704836E-01
 cg2d: Sum(rhs),rhsMax =   1.74328699281305E-04  1.42760949337709E-01
 cg2d: Sum(rhs),rhsMax =   1.73474866019911E-04  1.42765339818625E-01
 cg2d: Sum(rhs),rhsMax =   1.72620344244351E-04  1.42769724138517E-01
 cg2d: Sum(rhs),rhsMax =   1.71765135966936E-04  1.42774102288335E-01
 cg2d: Sum(rhs),rhsMax =   1.71006180687986E-04  1.42778474262602E-01
 cg2d: Sum(rhs),rhsMax =   1.70246421686330E-04  1.42782840071496E-01
 cg2d: Sum(rhs),rhsMax =   1.69486196127377E-04  1.42787199664276E-01
 cg2d: Sum(rhs),rhsMax =   1.68725399779420E-04  1.42791553045699E-01
 cg2d: Sum(rhs),rhsMax =   1.67964018193602E-04  1.42795900214607E-01
 cg2d: Sum(rhs),rhsMax =   1.67202052129863E-04  1.42800241160682E-01
 cg2d: Sum(rhs),rhsMax =   1.66439506095926E-04  1.42804575873880E-01
 cg2d: Sum(rhs),rhsMax =   1.65676384191156E-04  1.42808904345058E-01
 cg2d: Sum(rhs),rhsMax =   1.64912689705178E-04  1.42813226565299E-01
 cg2d: Sum(rhs),rhsMax =   1.64148424318591E-04  1.42817542525651E-01
 cg2d: Sum(rhs),rhsMax =   1.63383589006820E-04  1.42821852217159E-01
 cg2d: Sum(rhs),rhsMax =   1.62618184779088E-04  1.42826155630917E-01
 cg2d: Sum(rhs),rhsMax =   1.61852212684384E-04  1.42830452758070E-01
 cg2d: Sum(rhs),rhsMax =   1.61085674151285E-04  1.42834743589787E-01
 cg2d: Sum(rhs),rhsMax =   1.60318571009085E-04  1.42839028117236E-01
 cg2d: Sum(rhs),rhsMax =   1.59550905006045E-04  1.42843306331585E-01
 cg2d: Sum(rhs),rhsMax =   1.58782677627211E-04  1.42847578224007E-01
 cg2d: Sum(rhs),rhsMax =   1.58013890692712E-04  1.42851843785684E-01
 cg2d: Sum(rhs),rhsMax =   1.57244545631611E-04  1.42856103007813E-01
 cg2d: Sum(rhs),rhsMax =   1.56474644070299E-04  1.42860355881605E-01
 cg2d: Sum(rhs),rhsMax =   1.55704187366902E-04  1.42864602398285E-01
 cg2d: Sum(rhs),rhsMax =   1.54933177324003E-04  1.42868842549092E-01
 cg2d: Sum(rhs),rhsMax =   1.54161615414591E-04  1.42873076325278E-01
 cg2d: Sum(rhs),rhsMax =   1.53389503370434E-04  1.42877303718113E-01
 cg2d: Sum(rhs),rhsMax =   1.52616842684247E-04  1.42881524718877E-01
 cg2d: Sum(rhs),rhsMax =   1.51843634878744E-04  1.42885739318869E-01
 cg2d: Sum(rhs),rhsMax =   1.51069881646862E-04  1.42889947509398E-01
 cg2d: Sum(rhs),rhsMax =   1.50295584549472E-04  1.42894149281790E-01
 cg2d: Sum(rhs),rhsMax =   1.49520745353711E-04  1.42898344627380E-01
 cg2d: Sum(rhs),rhsMax =   1.48745365487761E-04  1.42902533537519E-01
 cg2d: Sum(rhs),rhsMax =   1.47969446602393E-04  1.42906716003571E-01
 cg2d: Sum(rhs),rhsMax =   1.47192990378361E-04  1.42910892016912E-01
 cg2d: Sum(rhs),rhsMax =   1.46415998408814E-04  1.42915061568932E-01
 cg2d: Sum(rhs),rhsMax =   1.45638472373155E-04  1.42919224651038E-01
 cg2d: Sum(rhs),rhsMax =   1.44860413849889E-04  1.42923381254647E-01
 cg2d: Sum(rhs),rhsMax =   1.44081824528267E-04  1.42927531371192E-01
 cg2d: Sum(rhs),rhsMax =   1.43302706076233E-04  1.42931674992121E-01
(PID.TID 0000.0001)      cg2d_init_res =   4.66597037917529E-04
(PID.TID 0000.0001)      cg2d_iters(min,last) =      -1      72
(PID.TID 0000.0001)      cg2d_last_res =   9.89574598773767E-08
(PID.TID 0000.0001) // =======================================================
(PID.TID 0000.0001) // Begin MONITOR dynamic field statistics
(PID.TID 0000.0001) // =======================================================
(PID.TID 0000.0001) %MON time_tsnumber                =                 21312
(PID.TID 0000.0001) %MON time_secondsf                =   2.5574400000000E+07
(PID.TID 0000.0001) %MON dynstat_eta_max              =   4.8469707755762E-02
(PID.TID 0000.0001) %MON dynstat_eta_min              =  -2.2632819632305E-02
(PID.TID 0000.0001) %MON dynstat_eta_mean             =  -1.0185824661027E-07
(PID.TID 0000.0001) %MON dynstat_eta_sd               =   1.8474967917200E-02
(PID.TID 0000.0001) %MON dynstat_eta_del2             =   1.7655139064596E-05
(PID.TID 0000.0001) %MON dynstat_uvel_max             =   3.1764088749378E-02
(PID.TID 0000.0001) %MON dynstat_uvel_min             =  -1.6070072801332E-02
(PID.TID 0000.0001) %MON dynstat_uvel_mean            =  -9.1412784405867E-08
(PID.TID 0000.0001) %MON dynstat_uvel_sd              =   7.0872856384267E-03
(PID.TID 0000.0001) %MON dynstat_uvel_del2            =   8.1661307965990E-06
(PID.TID 0000.0001) %MON dynstat_vvel_max             =   8.5739255983374E-02
(PID.TID 0000.0001) %MON dynstat_vvel_min             =  -2.9008527571636E-02
(PID.TID 0000.0001) %MON dynstat_vvel_mean            =  -4.6252347806660E-09
(PID.TID 0000.0001) %MON dynstat_vvel_sd              =   1.4870937183054E-02
(PID.TID 0000.0001) %MON dynstat_vvel_del2            =   7.4524444806460E-05
(PID.TID 0000.0001) %MON dynstat_wvel_max             =   4.6946103347000E-09
(PID.TID 0000.0001) %MON dynstat_wvel_min             =  -7.6612633932382E-09
(PID.TID 0000.0001) %MON dynstat_wvel_mean            =   3.7259196182681E-21
(PID.TID 0000.0001) %MON dynstat_wvel_sd              =   3.0872281671907E-09
(PID.TID 0000.0001) %MON dynstat_wvel_del2            =   9.7127146923017E-13
(PID.TID 0000.0001) %MON dynstat_theta_max            =   2.0000000000000E+01
(PID.TID 0000.0001) %MON dynstat_theta_min            =   2.0000000000000E+01
(PID.TID 0000.0001) %MON dynstat_theta_mean           =   2.0000000000000E+01
(PID.TID 0000.0001) %MON dynstat_theta_sd             =   0.0000000000000E+00
(PID.TID 0000.0001) %MON dynstat_theta_del2           =   0.0000000000000E+00
(PID.TID 0000.0001) %MON dynstat_salt_max             =   3.0000000000000E+01
(PID.TID 0000.0001) %MON dynstat_salt_min             =   3.0000000000000E+01
(PID.TID 0000.0001) %MON dynstat_salt_mean            =   3.0000000000000E+01
(PID.TID 0000.0001) %MON dynstat_salt_sd              =   0.0000000000000E+00
(PID.TID 0000.0001) %MON dynstat_salt_del2            =   0.0000000000000E+00
(PID.TID 0000.0001) %MON trAdv_CFL_u_max              =   1.9057797972509E-03
(PID.TID 0000.0001) %MON trAdv_CFL_v_max              =   5.1441962763587E-03
(PID.TID 0000.0001) %MON trAdv_CFL_w_max              =   1.1271815034561E-09
(PID.TID 0000.0001) %MON advcfl_uvel_max              =   1.9058453249627E-03
(PID.TID 0000.0001) %MON advcfl_vvel_max              =   5.1443553590025E-03
(PID.TID 0000.0001) %MON advcfl_wvel_max              =   3.6774064287543E-09
(PID.TID 0000.0001) %MON advcfl_W_hf_max              =   0.0000000000000E+00
(PID.TID 0000.0001) %MON pe_b_mean                    =   3.3483927520046E-07
(PID.TID 0000.0001) %MON ke_max                       =   3.6735162719936E-03
(PID.TID 0000.0001) %MON ke_mean                      =   1.3342574196209E-04
(PID.TID 0000.0001) %MON ke_vol                       =   7.2000000000000E+15
(PID.TID 0000.0001) %MON vort_r_min                   =  -1.4716941660188E-06
(PID.TID 0000.0001) %MON vort_r_max                   =   2.3744558765467E-06
(PID.TID 0000.0001) %MON vort_a_mean                  =   1.0600000000000E-04
(PID.TID 0000.0001) %MON vort_a_sd                    =   3.5368697848576E-06
(PID.TID 0000.0001) %MON vort_p_mean                  =   1.1130000000000E-04
(PID.TID 0000.0001) %MON vort_p_sd                    =   4.1152093588610E-05
(PID.TID 0000.0001) %MON surfExpan_theta_mean         =   7.4513432461269E-20
(PID.TID 0000.0001) %MON surfExpan_salt_mean          =   1.1177042501408E-19
(PID.TID 0000.0001) // =======================================================
(PID.TID 0000.0001) // End MONITOR dynamic field statistics
(PID.TID 0000.0001) // =======================================================
 cg2d: Sum(rhs),rhsMax =   1.42523059953356E-04  1.42935812108894E-01
 cg2d: Sum(rhs),rhsMax =   1.41742888022159E-04  1.42939942712986E-01
 cg2d: Sum(rhs),rhsMax =   1.40962191877037E-04  1.42944066795885E-01
 cg2d: Sum(rhs),rhsMax =   1.40180973183092E-04  1.42948184349093E-01
 cg2d: Sum(rhs),rhsMax =   1.39399233631737E-04  1.42952295364126E-01
 cg2d: Sum(rhs),rhsMax =   1.38616974877208E-04  1.42956399832515E-01
 cg2d: Sum(rhs),rhsMax =   1.37834198609562E-04  1.42960497745802E-01
 cg2d: Sum(rhs),rhsMax =   1.37050906515881E-04  1.42964589095547E-01
 cg2d: Sum(rhs),rhsMax =   1.36267100346673E-04  1.42968673873320E-01
 cg2d: Sum(rhs),rhsMax =   1.35482781727134E-04  1.42972752070710E-01
 cg2d: Sum(rhs),rhsMax =   1.34697952394082E-04  1.42976823679314E-01
 cg2d: Sum(rhs),rhsMax =   1.33912614106955E-04  1.42980888690748E-01
 cg2d: Sum(rhs),rhsMax =   1.33126768522264E-04  1.42984947096640E-01
 cg2d: Sum(rhs),rhsMax =   1.32450831270279E-04  1.42988998507822E-01
 cg2d: Sum(rhs),rhsMax =   1.31774707217961E-04  1.42993043669761E-01
 cg2d: Sum(rhs),rhsMax =   1.31098152001384E-04  1.42997082215915E-01
 cg2d: Sum(rhs),rhsMax =   1.30421236588814E-04  1.43001114115432E-01
 cg2d: Sum(rhs),rhsMax =   1.29743939945255E-04  1.43005139368308E-01
 cg2d: Sum(rhs),rhsMax =   1.29066267047334E-04  1.43009157967865E-01
 cg2d: Sum(rhs),rhsMax =   1.28388223036714E-04  1.43013169904101E-01
 cg2d: Sum(rhs),rhsMax =   1.27709815310039E-04  1.43017175168775E-01
 cg2d: Sum(rhs),rhsMax =   1.27031048299277E-04  1.43021173753210E-01
 cg2d: Sum(rhs),rhsMax =   1.26351924004544E-04  1.43025165649119E-01
 cg2d: Sum(rhs),rhsMax =   1.25672442976960E-04  1.43029150848165E-01
 cg2d: Sum(rhs),rhsMax =   1.24992605620401E-04  1.43033129342185E-01
 cg2d: Sum(rhs),rhsMax =   1.24312412777028E-04  1.43037101123051E-01
 cg2d: Sum(rhs),rhsMax =   1.23631866100892E-04  1.43041066182666E-01
 cg2d: Sum(rhs),rhsMax =   1.22950967363640E-04  1.43045024512901E-01
 cg2d: Sum(rhs),rhsMax =   1.22269718845504E-04  1.43048976105621E-01
 cg2d: Sum(rhs),rhsMax =   1.21588122278988E-04  1.43052920952687E-01
 cg2d: Sum(rhs),rhsMax =   1.20906179550843E-04  1.43056859045978E-01
 cg2d: Sum(rhs),rhsMax =   1.20223892071765E-04  1.43060790377384E-01
 cg2d: Sum(rhs),rhsMax =   1.19541261756182E-04  1.43064714938818E-01
 cg2d: Sum(rhs),rhsMax =   1.18858290111869E-04  1.43068632722206E-01
 cg2d: Sum(rhs),rhsMax =   1.18174978849203E-04  1.43072543719490E-01
 cg2d: Sum(rhs),rhsMax =   1.17491329814094E-04  1.43076447922622E-01
 cg2d: Sum(rhs),rhsMax =   1.16807344547143E-04  1.43080345323573E-01
 cg2d: Sum(rhs),rhsMax =   1.16123024924731E-04  1.43084235914334E-01
 cg2d: Sum(rhs),rhsMax =   1.15438372642586E-04  1.43088119686905E-01
 cg2d: Sum(rhs),rhsMax =   1.14753389565785E-04  1.43091996633305E-01
 cg2d: Sum(rhs),rhsMax =   1.14068077238038E-04  1.43095866745569E-01
 cg2d: Sum(rhs),rhsMax =   1.13382437487769E-04  1.43099730015741E-01
 cg2d: Sum(rhs),rhsMax =   1.12696472015803E-04  1.43103586435882E-01
 cg2d: Sum(rhs),rhsMax =   1.12010182664291E-04  1.43107435998065E-01
 cg2d: Sum(rhs),rhsMax =   1.11323571153535E-04  1.43111278694379E-01
 cg2d: Sum(rhs),rhsMax =   1.10636639191628E-04  1.43115114516927E-01
 cg2d: Sum(rhs),rhsMax =   1.09949388574427E-04  1.43118943457827E-01
 cg2d: Sum(rhs),rhsMax =   1.09261821086419E-04  1.43122765509212E-01
 cg2d: Sum(rhs),rhsMax =   1.08573938511295E-04  1.43126580663231E-01
 cg2d: Sum(rhs),rhsMax =   1.07885742545459E-04  1.43130388912048E-01
 cg2d: Sum(rhs),rhsMax =   1.07197234946383E-04  1.43134190247839E-01
 cg2d: Sum(rhs),rhsMax =   1.06508417537109E-04  1.43137984662799E-01
 cg2d: Sum(rhs),rhsMax =   1.05819292072916E-04  1.43141772149136E-01
 cg2d: Sum(rhs),rhsMax =   1.05129860503632E-04  1.43145552699070E-01
 cg2d: Sum(rhs),rhsMax =   1.04440124385255E-04  1.43149326304841E-01
 cg2d: Sum(rhs),rhsMax =   1.03750085576135E-04  1.43153092958699E-01
 cg2d: Sum(rhs),rhsMax =   1.03059745938233E-04  1.43156852652911E-01
 cg2d: Sum(rhs),rhsMax =   1.02369107240541E-04  1.43160605379760E-01
 cg2d: Sum(rhs),rhsMax =   1.01678171276793E-04  1.43164351131542E-01
 cg2d: Sum(rhs),rhsMax =   1.00986939984453E-04  1.43168089900570E-01
 cg2d: Sum(rhs),rhsMax =   1.00295414855964E-04  1.43171821679169E-01
 cg2d: Sum(rhs),rhsMax =   9.96035979650145E-05  1.43175546459682E-01
 cg2d: Sum(rhs),rhsMax =   9.89114910842403E-05  1.43179264234467E-01
 cg2d: Sum(rhs),rhsMax =   9.82190959390146E-05  1.43182974995893E-01
 cg2d: Sum(rhs),rhsMax =   9.75264144190188E-05  1.43186678736350E-01
 cg2d: Sum(rhs),rhsMax =   9.68334484379180E-05  1.43190375448239E-01
 cg2d: Sum(rhs),rhsMax =   9.61401996168185E-05  1.43194065123977E-01
 cg2d: Sum(rhs),rhsMax =   9.54466699927062E-05  1.43197747755997E-01
 cg2d: Sum(rhs),rhsMax =   9.47528613001588E-05  1.43201423336743E-01
 cg2d: Sum(rhs),rhsMax =   9.40587753873396E-05  1.43205091858682E-01
 cg2d: Sum(rhs),rhsMax =   9.33644142083910E-05  1.43208753314289E-01
 cg2d: Sum(rhs),rhsMax =   9.26697795278729E-05  1.43212407696058E-01
(PID.TID 0000.0001)      cg2d_init_res =   4.60966582579672E-04
(PID.TID 0000.0001)      cg2d_iters(min,last) =      -1      73
(PID.TID 0000.0001)      cg2d_last_res =   9.30280029514729E-08
(PID.TID 0000.0001) // =======================================================
(PID.TID 0000.0001) // Begin MONITOR dynamic field statistics
(PID.TID 0000.0001) // =======================================================
(PID.TID 0000.0001) %MON time_tsnumber                =                 21384
(PID.TID 0000.0001) %MON time_secondsf                =   2.5660800000000E+07
(PID.TID 0000.0001) %MON dynstat_eta_max              =   4.8829333915077E-02
(PID.TID 0000.0001) %MON dynstat_eta_min              =  -2.2446605471412E-02
(PID.TID 0000.0001) %MON dynstat_eta_mean             =  -6.5861392528831E-08
(PID.TID 0000.0001) %MON dynstat_eta_sd               =   1.8500370313912E-02
(PID.TID 0000.0001) %MON dynstat_eta_del2             =   1.7678429196547E-05
(PID.TID 0000.0001) %MON dynstat_uvel_max             =   3.1839918952986E-02
(PID.TID 0000.0001) %MON dynstat_uvel_min             =  -1.6124126732340E-02
(PID.TID 0000.0001) %MON dynstat_uvel_mean            =  -7.8365864974811E-08
(PID.TID 0000.0001) %MON dynstat_uvel_sd              =   7.0611091623576E-03
(PID.TID 0000.0001) %MON dynstat_uvel_del2            =   8.1550535472728E-06
(PID.TID 0000.0001) %MON dynstat_vvel_max             =   8.5920620118696E-02
(PID.TID 0000.0001) %MON dynstat_vvel_min             =  -2.9042644961175E-02
(PID.TID 0000.0001) %MON dynstat_vvel_mean            =  -3.5517128237603E-09
(PID.TID 0000.0001) %MON dynstat_vvel_sd              =   1.4902013626299E-02
(PID.TID 0000.0001) %MON dynstat_vvel_del2            =   7.4653481724194E-05
(PID.TID 0000.0001) %MON dynstat_wvel_max             =   4.5260750618763E-09
(PID.TID 0000.0001) %MON dynstat_wvel_min             =  -7.6473222521599E-09
(PID.TID 0000.0001) %MON dynstat_wvel_mean            =  -6.2081704123153E-22
(PID.TID 0000.0001) %MON dynstat_wvel_sd              =   3.0744027553097E-09
(PID.TID 0000.0001) %MON dynstat_wvel_del2            =   9.6364183837128E-13
(PID.TID 0000.0001) %MON dynstat_theta_max            =   2.0000000000000E+01
(PID.TID 0000.0001) %MON dynstat_theta_min            =   2.0000000000000E+01
(PID.TID 0000.0001) %MON dynstat_theta_mean           =   2.0000000000000E+01
(PID.TID 0000.0001) %MON dynstat_theta_sd             =   0.0000000000000E+00
(PID.TID 0000.0001) %MON dynstat_theta_del2           =   0.0000000000000E+00
(PID.TID 0000.0001) %MON dynstat_salt_max             =   3.0000000000000E+01
(PID.TID 0000.0001) %MON dynstat_salt_min             =   3.0000000000000E+01
(PID.TID 0000.0001) %MON dynstat_salt_mean            =   3.0000000000000E+01
(PID.TID 0000.0001) %MON dynstat_salt_sd              =   0.0000000000000E+00
(PID.TID 0000.0001) %MON dynstat_salt_del2            =   0.0000000000000E+00
(PID.TID 0000.0001) %MON trAdv_CFL_u_max              =   1.9103343220658E-03
(PID.TID 0000.0001) %MON trAdv_CFL_v_max              =   5.1550940738698E-03
(PID.TID 0000.0001) %MON trAdv_CFL_w_max              =   1.0869207705371E-09
(PID.TID 0000.0001) %MON advcfl_uvel_max              =   1.9103951371792E-03
(PID.TID 0000.0001) %MON advcfl_vvel_max              =   5.1552372071218E-03
(PID.TID 0000.0001) %MON advcfl_wvel_max              =   3.6707146810368E-09
(PID.TID 0000.0001) %MON advcfl_W_hf_max              =   0.0000000000000E+00
(PID.TID 0000.0001) %MON pe_b_mean                    =   3.3576069142285E-07
(PID.TID 0000.0001) %MON ke_max                       =   3.6893943024933E-03
(PID.TID 0000.0001) %MON ke_mean                      =   1.3369855909091E-04
(PID.TID 0000.0001) %MON ke_vol                       =   7.2000000000000E+15
(PID.TID 0000.0001) %MON vort_r_min                   =  -1.4742093714481E-06
(PID.TID 0000.0001) %MON vort_r_max                   =   2.3786358021907E-06
(PID.TID 0000.0001) %MON vort_a_mean                  =   1.0600000000000E-04
(PID.TID 0000.0001) %MON vort_a_sd                    =   3.5369273864781E-06
(PID.TID 0000.0001) %MON vort_p_mean                  =   1.1130000000000E-04
(PID.TID 0000.0001) %MON vort_p_sd                    =   4.1152022943543E-05
(PID.TID 0000.0001) %MON surfExpan_theta_mean         =  -1.2418705570067E-20
(PID.TID 0000.0001) %MON surfExpan_salt_mean          =  -1.8630270166082E-20
(PID.TID 0000.0001) // =======================================================
(PID.TID 0000.0001) // End MONITOR dynamic field statistics
(PID.TID 0000.0001) // =======================================================
 cg2d: Sum(rhs),rhsMax =   9.19748732154330E-05  1.43216054996496E-01
 cg2d: Sum(rhs),rhsMax =   9.12796972325960E-05  1.43219695208126E-01
 cg2d: Sum(rhs),rhsMax =   9.05842533109628E-05  1.43223328323488E-01
 cg2d: Sum(rhs),rhsMax =   8.98885433260237E-05  1.43226954335134E-01
 cg2d: Sum(rhs),rhsMax =   8.91925692092831E-05  1.43230573235634E-01
 cg2d: Sum(rhs),rhsMax =   8.84963328781629E-05  1.43234185017573E-01
 cg2d: Sum(rhs),rhsMax =   8.77998361154967E-05  1.43237789673548E-01
 cg2d: Sum(rhs),rhsMax =   8.71030808902015E-05  1.43241387196176E-01
 cg2d: Sum(rhs),rhsMax =   8.64060691156288E-05  1.43244977578086E-01
 cg2d: Sum(rhs),rhsMax =   8.57088026291024E-05  1.43248560811924E-01
 cg2d: Sum(rhs),rhsMax =   8.50112834395013E-05  1.43252136890352E-01
 cg2d: Sum(rhs),rhsMax =   8.43135133387247E-05  1.43255705806043E-01
 cg2d: Sum(rhs),rhsMax =   8.36154943739545E-05  1.43259267551691E-01
 cg2d: Sum(rhs),rhsMax =   8.29172283179722E-05  1.43262822120003E-01
 cg2d: Sum(rhs),rhsMax =   8.22187172273021E-05  1.43266369503702E-01
 cg2d: Sum(rhs),rhsMax =   8.15199629869978E-05  1.43269909695524E-01
 cg2d: Sum(rhs),rhsMax =   8.08209675669316E-05  1.43273442688223E-01
 cg2d: Sum(rhs),rhsMax =   8.01217329611005E-05  1.43276968474569E-01
 cg2d: Sum(rhs),rhsMax =   7.94222610450614E-05  1.43280487047345E-01
 cg2d: Sum(rhs),rhsMax =   7.87225538228208E-05  1.43283998399353E-01
 cg2d: Sum(rhs),rhsMax =   7.80226132566248E-05  1.43287502523404E-01
 cg2d: Sum(rhs),rhsMax =   7.73224412370065E-05  1.43290999412334E-01
 cg2d: Sum(rhs),rhsMax =   7.66220399230286E-05  1.43294489058987E-01
 cg2d: Sum(rhs),rhsMax =   7.59214111160740E-05  1.43297971456224E-01
 cg2d: Sum(rhs),rhsMax =   7.52205570578642E-05  1.43301446596924E-01
 cg2d: Sum(rhs),rhsMax =   7.45194796090394E-05  1.43304914473982E-01
 cg2d: Sum(rhs),rhsMax =   7.38181808154405E-05  1.43308375080304E-01
 cg2d: Sum(rhs),rhsMax =   7.31166625971150E-05  1.43311828408816E-01
 cg2d: Sum(rhs),rhsMax =   7.24149270964428E-05  1.43315274452457E-01
 cg2d: Sum(rhs),rhsMax =   7.17129762738888E-05  1.43318713204185E-01
 cg2d: Sum(rhs),rhsMax =   7.10108123537743E-05  1.43322144656969E-01
 cg2d: Sum(rhs),rhsMax =   7.03084372277512E-05  1.43325568803799E-01
 cg2d: Sum(rhs),rhsMax =   6.96058530532543E-05  1.43328985637676E-01
 cg2d: Sum(rhs),rhsMax =   6.89030618926259E-05  1.43332395151619E-01
 cg2d: Sum(rhs),rhsMax =   6.82000656737694E-05  1.43335797338663E-01
 cg2d: Sum(rhs),rhsMax =   6.74968667609853E-05  1.43339192191859E-01
 cg2d: Sum(rhs),rhsMax =   6.67934670951307E-05  1.43342579704271E-01
 cg2d: Sum(rhs),rhsMax =   6.60898689280069E-05  1.43345959868982E-01
 cg2d: Sum(rhs),rhsMax =   6.53860741412771E-05  1.43349332679089E-01
 cg2d: Sum(rhs),rhsMax =   6.46820851033809E-05  1.43352698127707E-01
 cg2d: Sum(rhs),rhsMax =   6.39779039224393E-05  1.43356056207964E-01
 cg2d: Sum(rhs),rhsMax =   6.32735327137871E-05  1.43359406913007E-01
 cg2d: Sum(rhs),rhsMax =   6.25689735788181E-05  1.43362750235994E-01
 cg2d: Sum(rhs),rhsMax =   6.18642288597402E-05  1.43366086170105E-01
 cg2d: Sum(rhs),rhsMax =   6.11593006048768E-05  1.43369414708532E-01
 cg2d: Sum(rhs),rhsMax =   6.04541911357545E-05  1.43372735844482E-01
 cg2d: Sum(rhs),rhsMax =   5.97489025753236E-05  1.43376049571184E-01
 cg2d: Sum(rhs),rhsMax =   5.90434371813293E-05  1.43379355881874E-01
 cg2d: Sum(rhs),rhsMax =   5.83377972797269E-05  1.43382654769811E-01
 cg2d: Sum(rhs),rhsMax =   5.76319850012948E-05  1.43385946228267E-01
 cg2d: Sum(rhs),rhsMax =   5.69260026702552E-05  1.43389230250533E-01
 cg2d: Sum(rhs),rhsMax =   5.62198526010953E-05  1.43392506829910E-01
 cg2d: Sum(rhs),rhsMax =   5.55135370025545E-05  1.43395775959722E-01
 cg2d: Sum(rhs),rhsMax =   5.48070583543531E-05  1.43399037633304E-01
 cg2d: Sum(rhs),rhsMax =   5.41004187544344E-05  1.43402291844010E-01
 cg2d: Sum(rhs),rhsMax =   5.33936207473516E-05  1.43405538585208E-01
 cg2d: Sum(rhs),rhsMax =   5.26866665482408E-05  1.43408777850284E-01
 cg2d: Sum(rhs),rhsMax =   5.19795586935313E-05  1.43412009632637E-01
 cg2d: Sum(rhs),rhsMax =   5.12722993570320E-05  1.43415233925688E-01
 cg2d: Sum(rhs),rhsMax =   5.05648911116987E-05  1.43418450722868E-01
 cg2d: Sum(rhs),rhsMax =   4.98573361826333E-05  1.43421660017626E-01
 cg2d: Sum(rhs),rhsMax =   4.91496371403354E-05  1.43424861803429E-01
 cg2d: Sum(rhs),rhsMax =   4.84417964755051E-05  1.43428056073760E-01
 cg2d: Sum(rhs),rhsMax =   4.77338165497153E-05  1.43431242822113E-01
 cg2d: Sum(rhs),rhsMax =   4.70256998994310E-05  1.43434422042008E-01
 cg2d: Sum(rhs),rhsMax =   4.63174490212834E-05  1.43437593726972E-01
 cg2d: Sum(rhs),rhsMax =   4.56090663181908E-05  1.43440757870552E-01
 cg2d: Sum(rhs),rhsMax =   4.49005544563182E-05  1.43443914466313E-01
 cg2d: Sum(rhs),rhsMax =   4.41919159188476E-05  1.43447063507833E-01
 cg2d: Sum(rhs),rhsMax =   4.34831533164693E-05  1.43450204988708E-01
 cg2d: Sum(rhs),rhsMax =   4.27742692093343E-05  1.43453338902550E-01
 cg2d: Sum(rhs),rhsMax =   4.20652662166355E-05  1.43456465242986E-01
(PID.TID 0000.0001)      cg2d_init_res =   4.55960681426580E-04
(PID.TID 0000.0001)      cg2d_iters(min,last) =      -1      73
(PID.TID 0000.0001)      cg2d_last_res =   9.86013028736343E-08
(PID.TID 0000.0001) // =======================================================
(PID.TID 0000.0001) // Begin MONITOR dynamic field statistics
(PID.TID 0000.0001) // =======================================================
(PID.TID 0000.0001) %MON time_tsnumber                =                 21456
(PID.TID 0000.0001) %MON time_secondsf                =   2.5747200000000E+07
(PID.TID 0000.0001) %MON dynstat_eta_max              =   4.9174207991146E-02
(PID.TID 0000.0001) %MON dynstat_eta_min              =  -2.2246016434168E-02
(PID.TID 0000.0001) %MON dynstat_eta_mean             =  -2.9664678149486E-08
(PID.TID 0000.0001) %MON dynstat_eta_sd               =   1.8507091472898E-02
(PID.TID 0000.0001) %MON dynstat_eta_del2             =   1.7702055527481E-05
(PID.TID 0000.0001) %MON dynstat_uvel_max             =   3.1909716309675E-02
(PID.TID 0000.0001) %MON dynstat_uvel_min             =  -1.6171210689544E-02
(PID.TID 0000.0001) %MON dynstat_uvel_mean            =  -6.4432598258666E-08
(PID.TID 0000.0001) %MON dynstat_uvel_sd              =   7.0296939349516E-03
(PID.TID 0000.0001) %MON dynstat_uvel_del2            =   8.1413808444760E-06
(PID.TID 0000.0001) %MON dynstat_vvel_max             =   8.6081862836313E-02
(PID.TID 0000.0001) %MON dynstat_vvel_min             =  -2.9094071222988E-02
(PID.TID 0000.0001) %MON dynstat_vvel_mean            =  -2.5063365708728E-09
(PID.TID 0000.0001) %MON dynstat_vvel_sd              =   1.4930010927608E-02
(PID.TID 0000.0001) %MON dynstat_vvel_del2            =   7.4776599609180E-05
(PID.TID 0000.0001) %MON dynstat_wvel_max             =   4.3237129977206E-09
(PID.TID 0000.0001) %MON dynstat_wvel_min             =  -7.6045464063645E-09
(PID.TID 0000.0001) %MON dynstat_wvel_mean            =   1.6388902521511E-21
(PID.TID 0000.0001) %MON dynstat_wvel_sd              =   3.0629772604312E-09
(PID.TID 0000.0001) %MON dynstat_wvel_del2            =   9.5557373563791E-13
(PID.TID 0000.0001) %MON dynstat_theta_max            =   2.0000000000000E+01
(PID.TID 0000.0001) %MON dynstat_theta_min            =   2.0000000000000E+01
(PID.TID 0000.0001) %MON dynstat_theta_mean           =   2.0000000000000E+01
(PID.TID 0000.0001) %MON dynstat_theta_sd             =   0.0000000000000E+00
(PID.TID 0000.0001) %MON dynstat_theta_del2           =   0.0000000000000E+00
(PID.TID 0000.0001) %MON dynstat_salt_max             =   3.0000000000000E+01
(PID.TID 0000.0001) %MON dynstat_salt_min             =   3.0000000000000E+01
(PID.TID 0000.0001) %MON dynstat_salt_mean            =   3.0000000000000E+01
(PID.TID 0000.0001) %MON dynstat_salt_sd              =   0.0000000000000E+00
(PID.TID 0000.0001) %MON dynstat_salt_del2            =   0.0000000000000E+00
(PID.TID 0000.0001) %MON trAdv_CFL_u_max              =   1.9145274884148E-03
(PID.TID 0000.0001) %MON trAdv_CFL_v_max              =   5.1647861703975E-03
(PID.TID 0000.0001) %MON trAdv_CFL_w_max              =   1.0382828774862E-09
(PID.TID 0000.0001) %MON advcfl_uvel_max              =   1.9145829785805E-03
(PID.TID 0000.0001) %MON advcfl_vvel_max              =   5.1649117701788E-03
(PID.TID 0000.0001) %MON advcfl_wvel_max              =   3.6501822750550E-09
(PID.TID 0000.0001) %MON advcfl_W_hf_max              =   0.0000000000000E+00
(PID.TID 0000.0001) %MON pe_b_mean                    =   3.3600469852615E-07
(PID.TID 0000.0001) %MON ke_max                       =   3.7035863213815E-03
(PID.TID 0000.0001) %MON ke_mean                      =   1.3389156303486E-04
(PID.TID 0000.0001) %MON ke_vol                       =   7.2000000000000E+15
(PID.TID 0000.0001) %MON vort_r_min                   =  -1.4767567937133E-06
(PID.TID 0000.0001) %MON vort_r_max                   =   2.3821101059943E-06
(PID.TID 0000.0001) %MON vort_a_mean                  =   1.0600000000000E-04
(PID.TID 0000.0001) %MON vort_a_sd                    =   3.5369806552281E-06
(PID.TID 0000.0001) %MON vort_p_mean                  =   1.1130000000000E-04
(PID.TID 0000.0001) %MON vort_p_sd                    =   4.1151947136467E-05
(PID.TID 0000.0001) %MON surfExpan_theta_mean         =   3.2769441481327E-20
(PID.TID 0000.0001) %MON surfExpan_salt_mean          =   4.9154478018762E-20
(PID.TID 0000.0001) // =======================================================
(PID.TID 0000.0001) // End MONITOR dynamic field statistics
(PID.TID 0000.0001) // =======================================================
 cg2d: Sum(rhs),rhsMax =   4.13561469213954E-05  1.43459584003662E-01
 cg2d: Sum(rhs),rhsMax =   4.06469139688347E-05  1.43462695178239E-01
 cg2d: Sum(rhs),rhsMax =   3.99375700197331E-05  1.43465798760395E-01
 cg2d: Sum(rhs),rhsMax =   3.92281178082498E-05  1.43468894743823E-01
 cg2d: Sum(rhs),rhsMax =   3.85185599332295E-05  1.43471983122231E-01
 cg2d: Sum(rhs),rhsMax =   3.78088992989368E-05  1.43475063889349E-01
 cg2d: Sum(rhs),rhsMax =   3.70991384599870E-05  1.43478137038919E-01
 cg2d: Sum(rhs),rhsMax =   3.63892802944252E-05  1.43481202564698E-01
 cg2d: Sum(rhs),rhsMax =   3.56793274462796E-05  1.43484260460464E-01
 cg2d: Sum(rhs),rhsMax =   3.49692828064711E-05  1.43487310720010E-01
 cg2d: Sum(rhs),rhsMax =   3.42591492714997E-05  1.43490353337142E-01
 cg2d: Sum(rhs),rhsMax =   3.35489295536524E-05  1.43493388305687E-01
 cg2d: Sum(rhs),rhsMax =   3.28386265092337E-05  1.43496415619488E-01
 cg2d: Sum(rhs),rhsMax =   3.21282432046320E-05  1.43499435272400E-01
 cg2d: Sum(rhs),rhsMax =   3.14177823255895E-05  1.43502447258300E-01
 cg2d: Sum(rhs),rhsMax =   3.07072469458280E-05  1.43505451571080E-01
 cg2d: Sum(rhs),rhsMax =   2.99966400227622E-05  1.43508448204645E-01
 cg2d: Sum(rhs),rhsMax =   2.92859644108207E-05  1.43511437152923E-01
 cg2d: Sum(rhs),rhsMax =   2.85752232353099E-05  1.43514418409852E-01
 cg2d: Sum(rhs),rhsMax =   2.78644193921354E-05  1.43517391969391E-01
 cg2d: Sum(rhs),rhsMax =   2.71535560644855E-05  1.43520357825516E-01
 cg2d: Sum(rhs),rhsMax =   2.64426362337642E-05  1.43523315972214E-01
 cg2d: Sum(rhs),rhsMax =   2.58369147727901E-05  1.43526266454989E-01
 cg2d: Sum(rhs),rhsMax =   2.52310682944080E-05  1.43529209155660E-01
 cg2d: Sum(rhs),rhsMax =   2.46253676592367E-05  1.43532144145375E-01
 cg2d: Sum(rhs),rhsMax =   2.40197120807426E-05  1.43535071393741E-01
 cg2d: Sum(rhs),rhsMax =   2.34140834633901E-05  1.43537990902568E-01
 cg2d: Sum(rhs),rhsMax =   2.28084836440537E-05  1.43540902668160E-01
 cg2d: Sum(rhs),rhsMax =   2.22029211557773E-05  1.43543806684058E-01
 cg2d: Sum(rhs),rhsMax =   2.15974047123573E-05  1.43546702943733E-01
 cg2d: Sum(rhs),rhsMax =   2.09919401059494E-05  1.43549591440829E-01
 cg2d: Sum(rhs),rhsMax =   2.03865304866336E-05  1.43552472169164E-01
 cg2d: Sum(rhs),rhsMax =   1.97811772134713E-05  1.43555345122781E-01
 cg2d: Sum(rhs),rhsMax =   1.91758816584717E-05  1.43558210295909E-01
 cg2d: Sum(rhs),rhsMax =   1.85706456513170E-05  1.43561067682875E-01
 cg2d: Sum(rhs),rhsMax =   1.79654720378316E-05  1.43563917278011E-01
 cg2d: Sum(rhs),rhsMax =   1.73603637915369E-05  1.43566759075619E-01
 cg2d: Sum(rhs),rhsMax =   1.67553241870837E-05  1.43569593069973E-01
 cg2d: Sum(rhs),rhsMax =   1.61503563877799E-05  1.43572419255343E-01
 cg2d: Sum(rhs),rhsMax =   1.55454631178215E-05  1.43575237626009E-01
 cg2d: Sum(rhs),rhsMax =   1.49406474600332E-05  1.43578048176272E-01
 cg2d: Sum(rhs),rhsMax =   1.43359120249060E-05  1.43580850900451E-01
 cg2d: Sum(rhs),rhsMax =   1.37312598161004E-05  1.43583645792879E-01
 cg2d: Sum(rhs),rhsMax =   1.31266937329717E-05  1.43586432847912E-01
 cg2d: Sum(rhs),rhsMax =   1.25222166286101E-05  1.43589212059918E-01
 cg2d: Sum(rhs),rhsMax =   1.19178315952538E-05  1.43591983423289E-01
 cg2d: Sum(rhs),rhsMax =   1.13135417790086E-05  1.43594746932437E-01
 cg2d: Sum(rhs),rhsMax =   1.07093499404406E-05  1.43597502581794E-01
 cg2d: Sum(rhs),rhsMax =   1.01052594164222E-05  1.43600250365812E-01
 cg2d: Sum(rhs),rhsMax =   9.50127316303763E-06  1.43602990278955E-01
 cg2d: Sum(rhs),rhsMax =   8.89739423280255E-06  1.43605722315705E-01
 cg2d: Sum(rhs),rhsMax =   8.29362577305180E-06  1.43608446470558E-01
 cg2d: Sum(rhs),rhsMax =   7.68997087274934E-06  1.43611162738025E-01
 cg2d: Sum(rhs),rhsMax =   7.08643276257394E-06  1.43613871112634E-01
 cg2d: Sum(rhs),rhsMax =   6.48301458742659E-06  1.43616571588928E-01
 cg2d: Sum(rhs),rhsMax =   5.87971950610517E-06  1.43619264161471E-01
 cg2d: Sum(rhs),rhsMax =   5.27655086870332E-06  1.43621948824844E-01
 cg2d: Sum(rhs),rhsMax =   4.67351173613888E-06  1.43624625573645E-01
 cg2d: Sum(rhs),rhsMax =   4.07060559055959E-06  1.43627294402490E-01
 cg2d: Sum(rhs),rhsMax =   3.46783570465223E-06  1.43629955306013E-01
 cg2d: Sum(rhs),rhsMax =   2.86520523770043E-06  1.43632608278864E-01
 cg2d: Sum(rhs),rhsMax =   2.26271766383054E-06  1.43635253315710E-01
 cg2d: Sum(rhs),rhsMax =   1.66037638382657E-06  1.43637890411233E-01
 cg2d: Sum(rhs),rhsMax =   1.05818474635186E-06  1.43640519560137E-01
 cg2d: Sum(rhs),rhsMax =   4.56146185257716E-07  1.43643140757137E-01
 cg2d: Sum(rhs),rhsMax =  -1.45735803243861E-07  1.43645753996969E-01
 cg2d: Sum(rhs),rhsMax =  -7.47457776254998E-07  1.43648359274385E-01
 cg2d: Sum(rhs),rhsMax =  -1.34901622786572E-06  1.43650956584156E-01
 cg2d: Sum(rhs),rhsMax =  -1.95040753863621E-06  1.43653545921066E-01
 cg2d: Sum(rhs),rhsMax =  -2.55162817592268E-06  1.43656127279923E-01
 cg2d: Sum(rhs),rhsMax =  -3.15267454567385E-06  1.43658700655546E-01
 cg2d: Sum(rhs),rhsMax =  -3.75354310522876E-06  1.43661266042775E-01
(PID.TID 0000.0001)      cg2d_init_res =   4.51689825536750E-04
(PID.TID 0000.0001)      cg2d_iters(min,last) =      -1      74
(PID.TID 0000.0001)      cg2d_last_res =   9.43442724473509E-08
(PID.TID 0000.0001) // =======================================================
(PID.TID 0000.0001) // Begin MONITOR dynamic field statistics
(PID.TID 0000.0001) // =======================================================
(PID.TID 0000.0001) %MON time_tsnumber                =                 21528
(PID.TID 0000.0001) %MON time_secondsf                =   2.5833600000000E+07
(PID.TID 0000.0001) %MON dynstat_eta_max              =   4.9500082886091E-02
(PID.TID 0000.0001) %MON dynstat_eta_min              =  -2.2033486260069E-02
(PID.TID 0000.0001) %MON dynstat_eta_mean             =   3.1277266771677E-09
(PID.TID 0000.0001) %MON dynstat_eta_sd               =   1.8495120869519E-02
(PID.TID 0000.0001) %MON dynstat_eta_del2             =   1.7725765879472E-05
(PID.TID 0000.0001) %MON dynstat_uvel_max             =   3.1972779166932E-02
(PID.TID 0000.0001) %MON dynstat_uvel_min             =  -1.6210880744042E-02
(PID.TID 0000.0001) %MON dynstat_uvel_mean            =  -4.9792110888837E-08
(PID.TID 0000.0001) %MON dynstat_uvel_sd              =   6.9934229011719E-03
(PID.TID 0000.0001) %MON dynstat_uvel_del2            =   8.1254036416473E-06
(PID.TID 0000.0001) %MON dynstat_vvel_max             =   8.6221199494374E-02
(PID.TID 0000.0001) %MON dynstat_vvel_min             =  -2.9162426340128E-02
(PID.TID 0000.0001) %MON dynstat_vvel_mean            =  -1.4968381101179E-09
(PID.TID 0000.0001) %MON dynstat_vvel_sd              =   1.4954599686172E-02
(PID.TID 0000.0001) %MON dynstat_vvel_del2            =   7.4892436319027E-05
(PID.TID 0000.0001) %MON dynstat_wvel_max             =   4.1173321788665E-09
(PID.TID 0000.0001) %MON dynstat_wvel_min             =  -7.5472047427320E-09
(PID.TID 0000.0001) %MON dynstat_wvel_mean            =  -2.1012864534795E-21
(PID.TID 0000.0001) %MON dynstat_wvel_sd              =   3.0530385782290E-09
(PID.TID 0000.0001) %MON dynstat_wvel_del2            =   9.4691871763847E-13
(PID.TID 0000.0001) %MON dynstat_theta_max            =   2.0000000000000E+01
(PID.TID 0000.0001) %MON dynstat_theta_min            =   2.0000000000000E+01
(PID.TID 0000.0001) %MON dynstat_theta_mean           =   2.0000000000000E+01
(PID.TID 0000.0001) %MON dynstat_theta_sd             =   0.0000000000000E+00
(PID.TID 0000.0001) %MON dynstat_theta_del2           =   0.0000000000000E+00
(PID.TID 0000.0001) %MON dynstat_salt_max             =   3.0000000000000E+01
(PID.TID 0000.0001) %MON dynstat_salt_min             =   3.0000000000000E+01
(PID.TID 0000.0001) %MON dynstat_salt_mean            =   3.0000000000000E+01
(PID.TID 0000.0001) %MON dynstat_salt_sd              =   0.0000000000000E+00
(PID.TID 0000.0001) %MON dynstat_salt_del2            =   0.0000000000000E+00
(PID.TID 0000.0001) %MON trAdv_CFL_u_max              =   1.9183171415316E-03
(PID.TID 0000.0001) %MON trAdv_CFL_v_max              =   5.1731652933975E-03
(PID.TID 0000.0001) %MON trAdv_CFL_w_max              =   9.8891635648906E-10
(PID.TID 0000.0001) %MON advcfl_uvel_max              =   1.9183667500159E-03
(PID.TID 0000.0001) %MON advcfl_vvel_max              =   5.1732719696625E-03
(PID.TID 0000.0001) %MON advcfl_wvel_max              =   3.6226582765114E-09
(PID.TID 0000.0001) %MON advcfl_W_hf_max              =   0.0000000000000E+00
(PID.TID 0000.0001) %MON pe_b_mean                    =   3.3557017555454E-07
(PID.TID 0000.0001) %MON ke_max                       =   3.7159274994548E-03
(PID.TID 0000.0001) %MON ke_mean                      =   1.3400277436162E-04
(PID.TID 0000.0001) %MON ke_vol                       =   7.2000000000000E+15
(PID.TID 0000.0001) %MON vort_r_min                   =  -1.4793148896302E-06
(PID.TID 0000.0001) %MON vort_r_max                   =   2.3848419146408E-06
(PID.TID 0000.0001) %MON vort_a_mean                  =   1.0600000000000E-04
(PID.TID 0000.0001) %MON vort_a_sd                    =   3.5370289953125E-06
(PID.TID 0000.0001) %MON vort_p_mean                  =   1.1130000000000E-04
(PID.TID 0000.0001) %MON vort_p_sd                    =   4.1151866980350E-05
(PID.TID 0000.0001) %MON surfExpan_theta_mean         =  -4.2020550002538E-20
(PID.TID 0000.0001) %MON surfExpan_salt_mean          =  -6.3031772394121E-20
(PID.TID 0000.0001) // =======================================================
(PID.TID 0000.0001) // End MONITOR dynamic field statistics
(PID.TID 0000.0001) // =======================================================
 cg2d: Sum(rhs),rhsMax =  -4.35423004561952E-06  1.43663823436466E-01
 cg2d: Sum(rhs),rhsMax =  -4.95473178267845E-06  1.43666372831491E-01
 cg2d: Sum(rhs),rhsMax =  -5.55504448385234E-06  1.43668914222742E-01
 cg2d: Sum(rhs),rhsMax =  -6.15516455805629E-06  1.43671447605126E-01
 cg2d: Sum(rhs),rhsMax =  -6.75508805253640E-06  1.43673972973569E-01
 cg2d: Sum(rhs),rhsMax =  -7.35481133440179E-06  1.43676490323012E-01
 cg2d: Sum(rhs),rhsMax =  -7.95433038528956E-06  1.43678999648416E-01
 cg2d: Sum(rhs),rhsMax =  -8.55364145329642E-06  1.43681500944757E-01
 cg2d: Sum(rhs),rhsMax =  -9.15274058900083E-06  1.43683994207031E-01
 cg2d: Sum(rhs),rhsMax =  -9.75162378591063E-06  1.43686479430249E-01
 cg2d: Sum(rhs),rhsMax =  -1.03502870897826E-05  1.43688956609439E-01
 cg2d: Sum(rhs),rhsMax =  -1.09487265574923E-05  1.43691425739651E-01
 cg2d: Sum(rhs),rhsMax =  -1.15469381376816E-05  1.43693886815946E-01
 cg2d: Sum(rhs),rhsMax =  -1.21449175637762E-05  1.43696339833407E-01
 cg2d: Sum(rhs),rhsMax =  -1.27426609052494E-05  1.43698784787133E-01
 cg2d: Sum(rhs),rhsMax =  -1.33401638572426E-05  1.43701221672239E-01
 cg2d: Sum(rhs),rhsMax =  -1.39374223043038E-05  1.43703650483861E-01
 cg2d: Sum(rhs),rhsMax =  -1.45344319187959E-05  1.43706071217148E-01
 cg2d: Sum(rhs),rhsMax =  -1.51311885833363E-05  1.43708483867271E-01
 cg2d: Sum(rhs),rhsMax =  -1.57276879288676E-05  1.43710888429413E-01
 cg2d: Sum(rhs),rhsMax =  -1.63239255088835E-05  1.43713284898781E-01
 cg2d: Sum(rhs),rhsMax =  -1.69198970016524E-05  1.43715673270595E-01
 cg2d: Sum(rhs),rhsMax =  -1.75155980107356E-05  1.43718053540093E-01
 cg2d: Sum(rhs),rhsMax =  -1.81110239443998E-05  1.43720425702531E-01
 cg2d: Sum(rhs),rhsMax =  -1.87061704167019E-05  1.43722789753185E-01
 cg2d: Sum(rhs),rhsMax =  -1.93010328190333E-05  1.43725145687344E-01
 cg2d: Sum(rhs),rhsMax =  -1.98956065305808E-05  1.43727493500318E-01
 cg2d: Sum(rhs),rhsMax =  -2.04898869321773E-05  1.43729833187433E-01
 cg2d: Sum(rhs),rhsMax =  -2.10838692194393E-05  1.43732164744033E-01
 cg2d: Sum(rhs),rhsMax =  -2.16775488295854E-05  1.43734488165481E-01
 cg2d: Sum(rhs),rhsMax =  -2.22709208200535E-05  1.43736803447154E-01
 cg2d: Sum(rhs),rhsMax =  -2.28639805171975E-05  1.43739110584450E-01
 cg2d: Sum(rhs),rhsMax =  -2.34567230596033E-05  1.43741409572783E-01
 cg2d: Sum(rhs),rhsMax =  -2.40491433872213E-05  1.43743700407585E-01
 cg2d: Sum(rhs),rhsMax =  -2.46412366487385E-05  1.43745983084308E-01
 cg2d: Sum(rhs),rhsMax =  -2.52329976598740E-05  1.43748257598416E-01
 cg2d: Sum(rhs),rhsMax =  -2.58244215850835E-05  1.43750523945395E-01
 cg2d: Sum(rhs),rhsMax =  -2.64155030638234E-05  1.43752782120748E-01
 cg2d: Sum(rhs),rhsMax =  -2.70062370378221E-05  1.43755032119995E-01
 cg2d: Sum(rhs),rhsMax =  -2.75966183287766E-05  1.43757273938675E-01
 cg2d: Sum(rhs),rhsMax =  -2.81866415122716E-05  1.43759507572342E-01
 cg2d: Sum(rhs),rhsMax =  -2.87763014301416E-05  1.43761733016572E-01
 cg2d: Sum(rhs),rhsMax =  -2.93655926655936E-05  1.43763950266954E-01
 cg2d: Sum(rhs),rhsMax =  -2.99545096483266E-05  1.43766159319097E-01
 cg2d: Sum(rhs),rhsMax =  -3.05430469622822E-05  1.43768360168628E-01
 cg2d: Sum(rhs),rhsMax =  -3.11311991388992E-05  1.43770552811193E-01
 cg2d: Sum(rhs),rhsMax =  -3.17189604531467E-05  1.43772737242451E-01
 cg2d: Sum(rhs),rhsMax =  -3.23063251488767E-05  1.43774913458084E-01
 cg2d: Sum(rhs),rhsMax =  -3.28932877748525E-05  1.43777081453789E-01
 cg2d: Sum(rhs),rhsMax =  -3.34798422750218E-05  1.43779241225281E-01
 cg2d: Sum(rhs),rhsMax =  -3.40659828757840E-05  1.43781392768294E-01
 cg2d: Sum(rhs),rhsMax =  -3.46517036381383E-05  1.43783536078578E-01
 cg2d: Sum(rhs),rhsMax =  -3.52369985853283E-05  1.43785671151904E-01
 cg2d: Sum(rhs),rhsMax =  -3.58218617326827E-05  1.43787797984057E-01
 cg2d: Sum(rhs),rhsMax =  -3.64062868724894E-05  1.43789916570842E-01
 cg2d: Sum(rhs),rhsMax =  -3.69902678976587E-05  1.43792026908081E-01
 cg2d: Sum(rhs),rhsMax =  -3.75737983714626E-05  1.43794128991614E-01
 cg2d: Sum(rhs),rhsMax =  -3.81568721914138E-05  1.43796222817299E-01
 cg2d: Sum(rhs),rhsMax =  -3.87394829028213E-05  1.43798308381014E-01
 cg2d: Sum(rhs),rhsMax =  -3.93216238268089E-05  1.43800385678649E-01
 cg2d: Sum(rhs),rhsMax =  -3.99032886405941E-05  1.43802454706119E-01
 cg2d: Sum(rhs),rhsMax =  -4.04844706708507E-05  1.43804515459352E-01
 cg2d: Sum(rhs),rhsMax =  -4.10651630468042E-05  1.43806567934296E-01
 cg2d: Sum(rhs),rhsMax =  -4.16453592496100E-05  1.43808612126917E-01
 cg2d: Sum(rhs),rhsMax =  -4.22250521030414E-05  1.43810648033196E-01
 cg2d: Sum(rhs),rhsMax =  -4.28042348804654E-05  1.43812675649137E-01
 cg2d: Sum(rhs),rhsMax =  -4.33829004877918E-05  1.43814694970758E-01
 cg2d: Sum(rhs),rhsMax =  -4.39610417261056E-05  1.43816705994096E-01
 cg2d: Sum(rhs),rhsMax =  -4.45386514779308E-05  1.43818708715206E-01
 cg2d: Sum(rhs),rhsMax =  -4.51157224395501E-05  1.43820703130161E-01
 cg2d: Sum(rhs),rhsMax =  -4.56922470943250E-05  1.43822689235053E-01
 cg2d: Sum(rhs),rhsMax =  -4.62682181333537E-05  1.43824667025991E-01
(PID.TID 0000.0001)      cg2d_init_res =   4.48235985702276E-04
(PID.TID 0000.0001)      cg2d_iters(min,last) =      -1      74
(PID.TID 0000.0001)      cg2d_last_res =   9.41179602735483E-08
(PID.TID 0000.0001) // =======================================================
(PID.TID 0000.0001) // Begin MONITOR dynamic field statistics
(PID.TID 0000.0001) // =======================================================
(PID.TID 0000.0001) %MON time_tsnumber                =                 21600
(PID.TID 0000.0001) %MON time_secondsf                =   2.5920000000000E+07
(PID.TID 0000.0001) %MON dynstat_eta_max              =   4.9809019161353E-02
(PID.TID 0000.0001) %MON dynstat_eta_min              =  -2.1811574872363E-02
(PID.TID 0000.0001) %MON dynstat_eta_mean             =   3.3686807155430E-08
(PID.TID 0000.0001) %MON dynstat_eta_sd               =   1.8464629502824E-02
(PID.TID 0000.0001) %MON dynstat_eta_del2             =   1.7749306125032E-05
(PID.TID 0000.0001) %MON dynstat_uvel_max             =   3.2028476450695E-02
(PID.TID 0000.0001) %MON dynstat_uvel_min             =  -1.6242790239498E-02
(PID.TID 0000.0001) %MON dynstat_uvel_mean            =  -3.4630008147125E-08
(PID.TID 0000.0001) %MON dynstat_uvel_sd              =   6.9527239983941E-03
(PID.TID 0000.0001) %MON dynstat_uvel_del2            =   8.1074098686390E-06
(PID.TID 0000.0001) %MON dynstat_vvel_max             =   8.6337088800958E-02
(PID.TID 0000.0001) %MON dynstat_vvel_min             =  -2.9247141630889E-02
(PID.TID 0000.0001) %MON dynstat_vvel_mean            =  -5.3020774482177E-10
(PID.TID 0000.0001) %MON dynstat_vvel_sd              =   1.4975494373202E-02
(PID.TID 0000.0001) %MON dynstat_vvel_del2            =   7.4999723280483E-05
(PID.TID 0000.0001) %MON dynstat_wvel_max             =   3.8800632668426E-09
(PID.TID 0000.0001) %MON dynstat_wvel_min             =  -7.4714767606929E-09
(PID.TID 0000.0001) %MON dynstat_wvel_mean            =  -2.1952407930965E-21
(PID.TID 0000.0001) %MON dynstat_wvel_sd              =   3.0445879300273E-09
(PID.TID 0000.0001) %MON dynstat_wvel_del2            =   9.3635787953295E-13
(PID.TID 0000.0001) %MON dynstat_theta_max            =   2.0000000000000E+01
(PID.TID 0000.0001) %MON dynstat_theta_min            =   2.0000000000000E+01
(PID.TID 0000.0001) %MON dynstat_theta_mean           =   2.0000000000000E+01
(PID.TID 0000.0001) %MON dynstat_theta_sd             =   0.0000000000000E+00
(PID.TID 0000.0001) %MON dynstat_theta_del2           =   0.0000000000000E+00
(PID.TID 0000.0001) %MON dynstat_salt_max             =   3.0000000000000E+01
(PID.TID 0000.0001) %MON dynstat_salt_min             =   3.0000000000000E+01
(PID.TID 0000.0001) %MON dynstat_salt_mean            =   3.0000000000000E+01
(PID.TID 0000.0001) %MON dynstat_salt_sd              =   0.0000000000000E+00
(PID.TID 0000.0001) %MON dynstat_salt_del2            =   0.0000000000000E+00
(PID.TID 0000.0001) %MON trAdv_CFL_u_max              =   1.9216653551746E-03
(PID.TID 0000.0001) %MON trAdv_CFL_v_max              =   5.1801387543937E-03
(PID.TID 0000.0001) %MON trAdv_CFL_w_max              =   9.3192513696849E-10
(PID.TID 0000.0001) %MON advcfl_uvel_max              =   1.9217085870417E-03
(PID.TID 0000.0001) %MON advcfl_vvel_max              =   5.1802253280575E-03
(PID.TID 0000.0001) %MON advcfl_wvel_max              =   3.5863088451326E-09
(PID.TID 0000.0001) %MON advcfl_W_hf_max              =   0.0000000000000E+00
(PID.TID 0000.0001) %MON pe_b_mean                    =   3.3446463436680E-07
(PID.TID 0000.0001) %MON ke_max                       =   3.7262741748912E-03
(PID.TID 0000.0001) %MON ke_mean                      =   1.3403118633776E-04
(PID.TID 0000.0001) %MON ke_vol                       =   7.2000000000000E+15
(PID.TID 0000.0001) %MON vort_r_min                   =  -1.4818616561840E-06
(PID.TID 0000.0001) %MON vort_r_max                   =   2.3868027392937E-06
(PID.TID 0000.0001) %MON vort_a_mean                  =   1.0600000000000E-04
(PID.TID 0000.0001) %MON vort_a_sd                    =   3.5370718708984E-06
(PID.TID 0000.0001) %MON vort_p_mean                  =   1.1130000000000E-04
(PID.TID 0000.0001) %MON vort_p_sd                    =   4.1151783331531E-05
(PID.TID 0000.0001) %MON surfExpan_theta_mean         =  -4.3901909268445E-20
(PID.TID 0000.0001) %MON surfExpan_salt_mean          =  -6.5854442886525E-20
(PID.TID 0000.0001) // =======================================================
(PID.TID 0000.0001) // End MONITOR dynamic field statistics
(PID.TID 0000.0001) // =======================================================
(PID.TID 0000.0001) %CHECKPOINT     21600 ckptA
(PID.TID 0000.0001)   Seconds in section "ALL                    [THE_MODEL_MAIN]":
(PID.TID 0000.0001)           User time:   154.484662583098
(PID.TID 0000.0001)         System time:  0.000000000000000E+000
(PID.TID 0000.0001)     Wall clock time:   200.980721950531
(PID.TID 0000.0001)          No. starts:           1
(PID.TID 0000.0001)           No. stops:           1
(PID.TID 0000.0001)   Seconds in section "INITIALISE_FIXED       [THE_MODEL_MAIN]":
(PID.TID 0000.0001)           User time:  9.949998930096626E-003
(PID.TID 0000.0001)         System time:  0.000000000000000E+000
(PID.TID 0000.0001)     Wall clock time:  0.178002834320068
(PID.TID 0000.0001)          No. starts:           1
(PID.TID 0000.0001)           No. stops:           1
(PID.TID 0000.0001)   Seconds in section "THE_MAIN_LOOP          [THE_MODEL_MAIN]":
(PID.TID 0000.0001)           User time:   154.474681582302
(PID.TID 0000.0001)         System time:  0.000000000000000E+000
(PID.TID 0000.0001)     Wall clock time:   200.802664041519
(PID.TID 0000.0001)          No. starts:           1
(PID.TID 0000.0001)           No. stops:           1
(PID.TID 0000.0001)   Seconds in section "INITIALISE_VARIA    [THE_MAIN_LOOP]":
(PID.TID 0000.0001)           User time:  4.813000559806824E-003
(PID.TID 0000.0001)         System time:  0.000000000000000E+000
(PID.TID 0000.0001)     Wall clock time:  3.924012184143066E-002
(PID.TID 0000.0001)          No. starts:           1
(PID.TID 0000.0001)           No. stops:           1
(PID.TID 0000.0001)   Seconds in section "MAIN LOOP           [THE_MAIN_LOOP]":
(PID.TID 0000.0001)           User time:   154.469851583242
(PID.TID 0000.0001)         System time:  0.000000000000000E+000
(PID.TID 0000.0001)     Wall clock time:   200.763368844986
(PID.TID 0000.0001)          No. starts:           1
(PID.TID 0000.0001)           No. stops:           1
(PID.TID 0000.0001)   Seconds in section "MAIN_DO_LOOP        [THE_MAIN_LOOP]":
(PID.TID 0000.0001)           User time:   154.249120086432
(PID.TID 0000.0001)         System time:  0.000000000000000E+000
(PID.TID 0000.0001)     Wall clock time:   200.541573524475
(PID.TID 0000.0001)          No. starts:       21600
(PID.TID 0000.0001)           No. stops:       21600
(PID.TID 0000.0001)   Seconds in section "FORWARD_STEP        [MAIN_DO_LOOP]":
(PID.TID 0000.0001)           User time:   153.797865226865
(PID.TID 0000.0001)         System time:  0.000000000000000E+000
(PID.TID 0000.0001)     Wall clock time:   200.085268020630
(PID.TID 0000.0001)          No. starts:       21600
(PID.TID 0000.0001)           No. stops:       21600
(PID.TID 0000.0001)   Seconds in section "LOAD_FIELDS_DRIVER  [FORWARD_STEP]":
(PID.TID 0000.0001)           User time:  0.670414578169584
(PID.TID 0000.0001)         System time:  0.000000000000000E+000
(PID.TID 0000.0001)     Wall clock time:  0.677631378173828
(PID.TID 0000.0001)          No. starts:       21600
(PID.TID 0000.0001)           No. stops:       21600
(PID.TID 0000.0001)   Seconds in section "EXTERNAL_FLDS_LOAD [LOAD_FLDS_DRIVER]":
(PID.TID 0000.0001)           User time:  0.226246032863855
(PID.TID 0000.0001)         System time:  0.000000000000000E+000
(PID.TID 0000.0001)     Wall clock time:  0.228665828704834
(PID.TID 0000.0001)          No. starts:       21600
(PID.TID 0000.0001)           No. stops:       21600
(PID.TID 0000.0001)   Seconds in section "DO_ATMOSPHERIC_PHYS [FORWARD_STEP]":
(PID.TID 0000.0001)           User time:  0.220771435648203
(PID.TID 0000.0001)         System time:  0.000000000000000E+000
(PID.TID 0000.0001)     Wall clock time:  0.222735404968262
(PID.TID 0000.0001)          No. starts:       21600
(PID.TID 0000.0001)           No. stops:       21600
(PID.TID 0000.0001)   Seconds in section "DO_OCEANIC_PHYS     [FORWARD_STEP]":
(PID.TID 0000.0001)           User time:   2.75429332628846
(PID.TID 0000.0001)         System time:  0.000000000000000E+000
(PID.TID 0000.0001)     Wall clock time:   2.79320549964905
(PID.TID 0000.0001)          No. starts:       21600
(PID.TID 0000.0001)           No. stops:       21600
(PID.TID 0000.0001)   Seconds in section "THERMODYNAMICS      [FORWARD_STEP]":
(PID.TID 0000.0001)           User time:   1.39413150399923
(PID.TID 0000.0001)         System time:  0.000000000000000E+000
(PID.TID 0000.0001)     Wall clock time:   1.41548585891724
(PID.TID 0000.0001)          No. starts:       21600
(PID.TID 0000.0001)           No. stops:       21600
(PID.TID 0000.0001)   Seconds in section "DYNAMICS            [FORWARD_STEP]":
(PID.TID 0000.0001)           User time:   26.6011618785560
(PID.TID 0000.0001)         System time:  0.000000000000000E+000
(PID.TID 0000.0001)     Wall clock time:   26.9388215541840
(PID.TID 0000.0001)          No. starts:       21600
(PID.TID 0000.0001)           No. stops:       21600
(PID.TID 0000.0001)   Seconds in section "SOLVE_FOR_PRESSURE  [FORWARD_STEP]":
(PID.TID 0000.0001)           User time:   113.019758947194
(PID.TID 0000.0001)         System time:  0.000000000000000E+000
(PID.TID 0000.0001)     Wall clock time:   114.187639713287
(PID.TID 0000.0001)          No. starts:       21600
(PID.TID 0000.0001)           No. stops:       21600
(PID.TID 0000.0001)   Seconds in section "MOM_CORRECTION_STEP [FORWARD_STEP]":
(PID.TID 0000.0001)           User time:   2.06803568825126
(PID.TID 0000.0001)         System time:  0.000000000000000E+000
(PID.TID 0000.0001)     Wall clock time:   2.07762384414673
(PID.TID 0000.0001)          No. starts:       21600
(PID.TID 0000.0001)           No. stops:       21600
(PID.TID 0000.0001)   Seconds in section "INTEGR_CONTINUITY   [FORWARD_STEP]":
(PID.TID 0000.0001)           User time:   1.28376847878098
(PID.TID 0000.0001)         System time:  0.000000000000000E+000
(PID.TID 0000.0001)     Wall clock time:   1.29302573204041
(PID.TID 0000.0001)          No. starts:       21600
(PID.TID 0000.0001)           No. stops:       21600
(PID.TID 0000.0001)   Seconds in section "TRC_CORRECTION_STEP [FORWARD_STEP]":
(PID.TID 0000.0001)           User time:  0.224805802106857
(PID.TID 0000.0001)         System time:  0.000000000000000E+000
(PID.TID 0000.0001)     Wall clock time:  0.224980831146240
(PID.TID 0000.0001)          No. starts:       21600
(PID.TID 0000.0001)           No. stops:       21600
(PID.TID 0000.0001)   Seconds in section "BLOCKING_EXCHANGES  [FORWARD_STEP]":
(PID.TID 0000.0001)           User time:  0.584093637764454
(PID.TID 0000.0001)         System time:  0.000000000000000E+000
(PID.TID 0000.0001)     Wall clock time:  0.590178728103638
(PID.TID 0000.0001)          No. starts:       21600
(PID.TID 0000.0001)           No. stops:       21600
(PID.TID 0000.0001)   Seconds in section "MONITOR             [FORWARD_STEP]":
(PID.TID 0000.0001)           User time:  0.558875642716885
(PID.TID 0000.0001)         System time:  0.000000000000000E+000
(PID.TID 0000.0001)     Wall clock time:  0.737068176269531
(PID.TID 0000.0001)          No. starts:       21600
(PID.TID 0000.0001)           No. stops:       21600
(PID.TID 0000.0001)   Seconds in section "DO_THE_MODEL_IO     [FORWARD_STEP]":
(PID.TID 0000.0001)           User time:  0.980444625020027
(PID.TID 0000.0001)         System time:  0.000000000000000E+000
(PID.TID 0000.0001)     Wall clock time:   45.5176668167114
(PID.TID 0000.0001)          No. starts:       21600
(PID.TID 0000.0001)           No. stops:       21600
(PID.TID 0000.0001)   Seconds in section "DO_WRITE_PICKUP     [FORWARD_STEP]":
(PID.TID 0000.0001)           User time:  0.229554038494825
(PID.TID 0000.0001)         System time:  0.000000000000000E+000
(PID.TID 0000.0001)     Wall clock time:  0.259735584259033
(PID.TID 0000.0001)          No. starts:       21600
(PID.TID 0000.0001)           No. stops:       21600
(PID.TID 0000.0001) // ======================================================
(PID.TID 0000.0001) // Tile <-> Tile communication statistics
(PID.TID 0000.0001) // ======================================================
(PID.TID 0000.0001) // o Tile number: 000001
(PID.TID 0000.0001) //         No. X exchanges =              0
(PID.TID 0000.0001) //            Max. X spins =              0
(PID.TID 0000.0001) //            Min. X spins =     1000000000
(PID.TID 0000.0001) //          Total. X spins =              0
(PID.TID 0000.0001) //            Avg. X spins =       0.00E+00
(PID.TID 0000.0001) //         No. Y exchanges =              0
(PID.TID 0000.0001) //            Max. Y spins =              0
(PID.TID 0000.0001) //            Min. Y spins =     1000000000
(PID.TID 0000.0001) //          Total. Y spins =              0
(PID.TID 0000.0001) //            Avg. Y spins =       0.00E+00
(PID.TID 0000.0001) // o Thread number: 000001
(PID.TID 0000.0001) //            No. barriers =        9753674
(PID.TID 0000.0001) //      Max. barrier spins =              1
(PID.TID 0000.0001) //      Min. barrier spins =              1
(PID.TID 0000.0001) //     Total barrier spins =        9753674
(PID.TID 0000.0001) //      Avg. barrier spins =       1.00E+00
PROGRAM MAIN: Execution ended Normally
